
  EPA STORM WATER MANAGEMENT MODEL - VERSION 5.2 (Build 5.2.4)
  PYSWMM TOOLKIT API - VERSION v1.0 (2023-11-27)
  ------------------------------------------------------------

  test 
  
  ****************
  Analysis Options
  ****************
  Flow Units ............... LPS
  Process Models:
    Rainfall/Runoff ........ YES
    RDII ................... NO
    Snowmelt ............... NO
    Groundwater ............ NO
    Flow Routing ........... YES
    Ponding Allowed ........ YES
    Water Quality .......... NO
  Infiltration Method ...... CURVE_NUMBER
  Flow Routing Method ...... DYNWAVE
  Surcharge Method ......... EXTRAN
  Starting Date ............ 11/13/2024 00:00:00
  Ending Date .............. 11/13/2024 03:25:00
  Antecedent Dry Days ...... 7.0
  Report Time Step ......... 00:05:00
  Wet Time Step ............ 00:01:00
  Dry Time Step ............ 01:00:00
  Routing Time Step ........ 0.60 sec
  Variable Time Step ....... YES
  Maximum Trials ........... 8
  Number of Threads ........ 1
  Head Tolerance ........... 0.001500 m
  
  
  **************************        Volume         Depth
  Runoff Quantity Continuity     hectare-m            mm
  **************************     ---------       -------
  Total Precipitation ......         0.646        69.660
  Evaporation Loss .........         0.000         0.000
  Infiltration Loss ........         0.025         2.724
  Surface Runoff ...........         0.614        66.198
  Final Storage ............         0.004         0.429
  Continuity Error (%) .....         0.442
  
  
  **************************        Volume        Volume
  Flow Routing Continuity        hectare-m      10^6 ltr
  **************************     ---------     ---------
  Dry Weather Inflow .......         0.000         0.000
  Wet Weather Inflow .......         0.613         6.135
  Groundwater Inflow .......         0.000         0.000
  RDII Inflow ..............         0.000         0.000
  External Inflow ..........         0.000         0.000
  External Outflow .........         0.613         6.130
  Flooding Loss ............         0.000         0.000
  Evaporation Loss .........         0.000         0.000
  Exfiltration Loss ........         0.000         0.000
  Initial Stored Volume ....         0.000         0.000
  Final Stored Volume ......         0.001         0.006
  Continuity Error (%) .....        -0.003
  
  
  *************************
  Highest Continuity Errors
  *************************
  Node P31 (1.14%)
  
  
  ***************************
  Time-Step Critical Elements
  ***************************
  None
  
  
  ********************************
  Highest Flow Instability Indexes
  ********************************
  Link G66 (11)
  Link G65 (3)
  Link G79 (3)
  Link G8 (2)
  Link G48 (2)
  
  
  *********************************
  Most Frequent Nonconverging Nodes
  *********************************
  Node E1 (1.76%)
  Node E32 (1.76%)
  Node E33 (1.76%)
  Node P24 (0.24%)
  Node P1 (0.22%)
  
  
  *************************
  Routing Time Step Summary
  *************************
  Minimum Time Step           :     0.40 sec
  Average Time Step           :     0.50 sec
  Maximum Time Step           :     0.60 sec
  % of Time in Steady State   :     0.00
  Average Iterations per Step :     2.18
  % of Steps Not Converging   :     1.76
  Time Step Frequencies       :
      0.600 -  0.579 sec      :    99.46 %
      0.579 -  0.558 sec      :     0.02 %
      0.558 -  0.538 sec      :     0.02 %
      0.538 -  0.519 sec      :     0.05 %
      0.519 -  0.500 sec      :     0.45 %
  
  
  ***************************
  Subcatchment Runoff Summary
  ***************************
  
  ------------------------------------------------------------------------------------------------------------------------------
                            Total      Total      Total      Total     Imperv       Perv      Total       Total     Peak  Runoff
                           Precip      Runon       Evap      Infil     Runoff     Runoff     Runoff      Runoff   Runoff   Coeff
  Subcatchment                 mm         mm         mm         mm         mm         mm         mm    10^6 ltr      LPS
  ------------------------------------------------------------------------------------------------------------------------------
  B140                      69.66       0.00       0.00       2.72      60.97       5.67      66.07        0.04    31.44   0.949
  B139                      69.66       0.00       0.00       2.72      60.97       5.67      66.07        0.04    31.07   0.949
  B141                      69.66       0.00       0.00       2.72      60.99       5.68      66.10        0.02    14.98   0.949
  B142                      69.66       0.00       0.00       2.72      60.99       5.68      66.10        0.02    14.98   0.949
  B144                      69.66       0.00       0.00       2.72      60.99       5.68      66.10        0.02    14.98   0.949
  B145                      69.66       0.00       0.00       2.72      60.99       5.68      66.10        0.02    14.98   0.949
  B146                      69.66       0.00       0.00       2.72      60.99       5.68      66.10        0.02    14.98   0.949
  B147                      69.66       0.00       0.00       2.72      60.99       5.68      66.10        0.02    14.98   0.949
  B148                      69.66       0.00       0.00       2.72      60.99       5.68      66.10        0.02    14.98   0.949
  B149                      69.66       0.00       0.00       2.72      60.96       5.67      66.06        0.04    29.34   0.948
  B108                      69.66       0.00       0.00       2.72      60.95       5.67      66.05        0.02    14.94   0.948
  B42                       69.66       0.00       0.00       2.72      60.94       5.66      66.03        0.02    14.93   0.948
  B40                       69.66       0.00       0.00       2.72      60.94       5.66      66.03        0.02    14.93   0.948
  B38                       69.66       0.00       0.00       2.72      60.94       5.66      66.03        0.02    14.93   0.948
  B36                       69.66       0.00       0.00       2.72      60.94       5.66      66.03        0.02    14.93   0.948
  B34                       69.66       0.00       0.00       2.72      60.94       5.66      66.03        0.02    14.93   0.948
  B32                       69.66       0.00       0.00       2.72      60.94       5.66      66.03        0.02    14.93   0.948
  B30                       69.66       0.00       0.00       2.72      60.94       5.66      66.03        0.02    14.93   0.948
  B9                        69.66       0.00       0.00       2.72      60.94       5.66      66.03        0.02    14.93   0.948
  B7                        69.66       0.00       0.00       2.72      60.94       5.66      66.60        0.02    15.08   0.956
  B5                        69.66       0.00       0.00       2.72      60.94       5.66      66.03        0.02    14.93   0.948
  B3                        69.66       0.00       0.00       2.72      60.94       5.66      66.03        0.02    14.93   0.948
  B1                        69.66       0.00       0.00       2.72      60.94       5.66      66.60        0.02    15.08   0.956
  B23                       69.66       0.00       0.00       2.72      60.94       5.66      66.60        0.02    15.08   0.956
  B21                       69.66       0.00       0.00       2.72      60.94       5.66      66.03        0.02    14.93   0.948
  B19                       69.66       0.00       0.00       2.72      60.94       5.66      66.03        0.02    14.93   0.948
  B17                       69.66       0.00       0.00       2.72      60.94       5.66      66.03        0.02    14.93   0.948
  B15                       69.66       0.00       0.00       2.72      60.94       5.66      66.03        0.02    14.93   0.948
  B13                       69.66       0.00       0.00       2.72      60.94       5.66      66.03        0.02    14.93   0.948
  B11                       69.66       0.00       0.00       2.72      60.94       5.66      66.03        0.02    14.93   0.948
  B129                      69.66       0.00       0.00       2.72      60.99       5.68      66.10        0.02    14.98   0.949
  B127                      69.66       0.00       0.00       2.72      60.99       5.68      66.10        0.02    14.98   0.949
  B125                      69.66       0.00       0.00       2.72      60.99       5.68      66.10        0.02    14.98   0.949
  B123                      69.66       0.00       0.00       2.72      60.98       5.67      66.09        0.02    14.97   0.949
  B121                      69.66       0.00       0.00       2.72      60.98       5.67      66.09        0.02    14.97   0.949
  B120                      69.66       0.00       0.00       2.72      60.98       5.67      66.09        0.02    14.97   0.949
  B119                      69.66       0.00       0.00       2.72      60.98       5.67      66.09        0.02    14.97   0.949
  B113                      69.66       0.00       0.00       2.72      60.95       5.67      66.05        0.02    14.94   0.948
  B111                      69.66       0.00       0.00       2.72      60.95       5.67      66.05        0.02    14.94   0.948
  B109                      69.66       0.00       0.00       2.72      60.95       5.67      66.05        0.02    14.94   0.948
  B107                      69.66       0.00       0.00       2.72      60.95       5.67      66.05        0.02    14.94   0.948
  B105                      69.66       0.00       0.00       2.72      60.95       5.67      66.05        0.02    14.94   0.948
  B103                      69.66       0.00       0.00       2.72      60.95       5.67      66.05        0.02    14.94   0.948
  B101                      69.66       0.00       0.00       2.72      60.95       5.67      66.05        0.02    14.94   0.948
  BB118                     69.66       0.00       0.00       2.72      60.95       5.67      66.05        0.04    29.32   0.948
  B99                       69.66       0.00       0.00       2.72      60.87       5.65      65.96        0.04    29.00   0.947
  B28                       69.66       0.00       0.00       2.72      60.85       5.64      65.93        0.04    28.87   0.946
  B115                      69.66       0.00       0.00       2.72      60.95       5.67      66.05        0.02    14.94   0.948
  B22                       69.66       0.00       0.00       2.72      60.94       5.66      66.03        0.02    14.93   0.948
  B20                       69.66       0.00       0.00       2.72      60.94       5.66      66.03        0.02    14.93   0.948
  B18                       69.66       0.00       0.00       2.72      60.94       5.66      66.03        0.02    14.93   0.948
  B16                       69.66       0.00       0.00       2.72      60.94       5.66      66.03        0.02    14.93   0.948
  B14                       69.66       0.00       0.00       2.72      60.94       5.66      66.03        0.02    14.93   0.948
  B12                       69.66       0.00       0.00       2.72      60.94       5.66      66.03        0.02    14.93   0.948
  B10                       69.66       0.00       0.00       2.72      60.94       5.66      66.03        0.02    14.93   0.948
  B8                        69.66       0.00       0.00       2.72      60.94       5.66      66.60        0.02    15.08   0.956
  B6                        69.66       0.00       0.00       2.72      60.94       5.66      66.03        0.02    14.93   0.948
  B4                        69.66       0.00       0.00       2.72      60.94       5.66      66.03        0.02    14.93   0.948
  B2                        69.66       0.00       0.00       2.72      60.94       5.66      66.03        0.02    14.93   0.948
  B29                       69.66       0.00       0.00       2.72      60.94       5.66      66.03        0.02    14.93   0.948
  B31                       69.66       0.00       0.00       2.72      60.94       5.66      66.03        0.02    14.93   0.948
  B33                       69.66       0.00       0.00       2.72      60.94       5.66      66.03        0.02    14.93   0.948
  B35.                      69.66       0.00       0.00       2.72      60.94       5.66      66.03        0.02    14.93   0.948
  B37                       69.66       0.00       0.00       2.72      60.94       5.66      66.03        0.02    14.93   0.948
  B39                       69.66       0.00       0.00       2.72      60.94       5.66      66.60        0.02    15.08   0.956
  B41                       69.66       0.00       0.00       2.72      60.94       5.66      66.03        0.02    14.93   0.948
  B43                       69.66       0.00       0.00       2.72      60.94       5.66      66.03        0.02    14.93   0.948
  B27                       69.66       0.00       0.00       2.72      60.85       5.64      65.93        0.04    28.87   0.946
  B25                       69.66       0.00       0.00       2.72      60.85       5.64      65.93        0.04    28.87   0.946
  B24                       69.66       0.00       0.00       2.72      60.85       5.64      66.50        0.04    29.15   0.955
  B67                       69.66       0.00       0.00       2.72      60.85       5.64      65.93        0.04    28.87   0.946
  B68                       69.66       0.00       0.00       2.72      60.85       5.64      65.93        0.04    28.87   0.946
  B98                       69.66       0.00       0.00       2.72      60.87       5.65      65.96        0.04    29.00   0.947
  B97                       69.66       0.00       0.00       2.72      60.80       5.63      65.87        0.04    28.51   0.946
  B46                       69.66       0.00       0.00       2.72      60.91       5.66      66.00        0.03    19.84   0.948
  B45                       69.66       0.00       0.00       2.72      60.83       5.64      65.91        0.05    33.52   0.946
  B47                       69.66       0.00       0.00       2.72      60.83       5.64      65.90        0.05    34.26   0.946
  B44                       69.66       0.00       0.00       2.72      60.91       5.66      66.00        0.03    19.83   0.947
  B122                      69.66       0.00       0.00       2.72      60.95       5.67      66.05        0.04    29.32   0.948
  B124                      69.66       0.00       0.00       2.72      60.98       5.67      66.09        0.02    14.97   0.949
  B126                      69.66       0.00       0.00       2.72      60.98       5.67      66.09        0.02    14.97   0.949
  B128                      69.66       0.00       0.00       2.72      60.98       5.67      66.09        0.02    14.97   0.949
  B130                      69.66       0.00       0.00       2.72      60.98       5.67      66.09        0.02    14.97   0.949
  B132                      69.66       0.00       0.00       2.72      60.99       5.68      66.10        0.02    14.98   0.949
  B135                      69.66       0.00       0.00       2.72      60.99       5.68      66.10        0.02    14.98   0.949
  B137                      69.66       0.00       0.00       2.72      60.99       5.68      66.10        0.02    14.98   0.949
  BBB118                    69.66       0.00       0.00       2.72      60.87       5.65      65.96        0.04    29.00   0.947
  B48                       69.66       0.00       0.00       2.72      60.85       5.64      65.93        0.04    28.87   0.946
  BB117                     69.66       0.00       0.00       2.72      60.87       5.65      65.96        0.04    29.00   0.947
  B83                       69.66       0.00       0.00       2.72      60.94       5.66      66.03        0.02    14.93   0.948
  B81                       69.66       0.00       0.00       2.72      60.94       5.66      66.03        0.02    14.93   0.948
  B79                       69.66       0.00       0.00       2.72      60.94       5.66      66.03        0.02    14.93   0.948
  B77                       69.66       0.00       0.00       2.72      60.94       5.66      66.03        0.02    14.93   0.948
  B75                       69.66       0.00       0.00       2.72      60.94       5.66      66.03        0.02    14.93   0.948
  B73                       69.66       0.00       0.00       2.72      60.94       5.66      66.03        0.02    14.93   0.948
  B71                       69.66       0.00       0.00       2.72      60.94       5.66      66.03        0.02    14.93   0.948
  B69                       69.66       0.00       0.00       2.72      60.94       5.66      66.03        0.02    14.93   0.948
  B70                       69.66       0.00       0.00       2.72      60.94       5.66      66.03        0.02    14.93   0.948
  B72                       69.66       0.00       0.00       2.72      60.94       5.66      66.03        0.02    14.93   0.948
  B74                       69.66       0.00       0.00       2.72      60.94       5.66      66.03        0.02    14.93   0.948
  B76                       69.66       0.00       0.00       2.72      60.94       5.66      66.03        0.02    14.93   0.948
  B78                       69.66       0.00       0.00       2.72      60.94       5.66      66.03        0.02    14.93   0.948
  B80                       69.66       0.00       0.00       2.72      60.94       5.66      66.03        0.02    14.93   0.948
  B82                       69.66       0.00       0.00       2.72      60.94       5.66      66.03        0.02    14.93   0.948
  B84                       69.66       0.00       0.00       2.72      60.94       5.66      66.03        0.02    14.93   0.948
  B85                       69.66       0.00       0.00       2.72      60.95       5.67      66.05        0.02    14.94   0.948
  B86                       69.66       0.00       0.00       2.72      60.95       5.67      66.05        0.02    14.94   0.948
  B88                       69.66       0.00       0.00       2.72      60.95       5.67      66.05        0.02    14.94   0.948
  B90                       69.66       0.00       0.00       2.72      60.95       5.67      66.05        0.02    14.94   0.948
  B92                       69.66       0.00       0.00       2.72      60.95       5.67      66.05        0.02    14.94   0.948
  B94                       69.66       0.00       0.00       2.72      60.95       5.67      66.05        0.02    14.94   0.948
  B96                       69.66       0.00       0.00       2.72      60.95       5.67      66.05        0.02    14.94   0.948
  B95                       69.66       0.00       0.00       2.72      60.95       5.67      66.05        0.02    14.94   0.948
  B93                       69.66       0.00       0.00       2.72      60.95       5.67      66.05        0.02    14.94   0.948
  B91                       69.66       0.00       0.00       2.72      60.95       5.67      66.05        0.02    14.94   0.948
  B89                       69.66       0.00       0.00       2.72      60.95       5.67      66.05        0.02    14.94   0.948
  B87                       69.66       0.00       0.00       2.72      60.95       5.67      66.05        0.02    14.94   0.948
  B116                      69.66       0.00       0.00       2.72      60.95       5.67      66.05        0.02    14.94   0.948
  B114                      69.66       0.00       0.00       2.72      60.95       5.67      66.05        0.02    14.94   0.948
  B112                      69.66       0.00       0.00       2.72      60.95       5.67      66.05        0.02    14.94   0.948
  B110                      69.66       0.00       0.00       2.72      60.95       5.67      66.05        0.02    14.94   0.948
  B50                       69.66       0.00       0.00       2.72      60.94       5.66      66.03        0.02    14.93   0.948
  B52                       69.66       0.00       0.00       2.72      60.94       5.66      66.03        0.02    14.93   0.948
  B54                       69.66       0.00       0.00       2.72      60.94       5.66      66.03        0.02    14.93   0.948
  B56                       69.66       0.00       0.00       2.72      60.94       5.66      66.03        0.02    14.93   0.948
  B58                       69.66       0.00       0.00       2.72      60.94       5.66      66.03        0.02    14.93   0.948
  B60                       69.66       0.00       0.00       2.72      60.94       5.66      66.03        0.02    14.93   0.948
  B106                      69.66       0.00       0.00       2.72      60.95       5.67      66.05        0.02    14.94   0.948
  B104                      69.66       0.00       0.00       2.72      60.95       5.67      66.05        0.02    14.94   0.948
  B102                      69.66       0.00       0.00       2.72      60.95       5.67      66.05        0.02    14.94   0.948
  B100                      69.66       0.00       0.00       2.72      60.87       5.65      65.96        0.04    29.00   0.947
  B66                       69.66       0.00       0.00       2.72      60.85       5.64      65.93        0.04    28.87   0.946
  B62                       69.66       0.00       0.00       2.72      60.94       5.66      66.03        0.02    14.93   0.948
  B64                       69.66       0.00       0.00       2.72      60.94       5.66      66.03        0.02    14.93   0.948
  B65                       69.66       0.00       0.00       2.72      60.85       5.64      65.93        0.04    28.87   0.946
  B63                       69.66       0.00       0.00       2.72      60.94       5.66      66.03        0.02    14.93   0.948
  B61                       69.66       0.00       0.00       2.72      60.94       5.66      66.03        0.02    14.93   0.948
  B59                       69.66       0.00       0.00       2.72      60.94       5.66      66.03        0.02    14.93   0.948
  B57                       69.66       0.00       0.00       2.72      60.94       5.66      66.03        0.02    14.93   0.948
  B55                       69.66       0.00       0.00       2.72      60.94       5.66      66.03        0.02    14.93   0.948
  B53                       69.66       0.00       0.00       2.72      60.94       5.66      66.03        0.02    14.93   0.948
  B51                       69.66       0.00       0.00       2.72      60.94       5.66      66.03        0.02    14.93   0.948
  B49                       69.66       0.00       0.00       2.72      60.94       5.66      66.03        0.02    14.93   0.948
  B138                      69.66       0.00       0.00       2.72      60.97       5.67      66.07        0.05    32.96   0.948
  B188                      69.66       0.00       0.00       2.72      60.96       5.67      66.62        0.05    32.45   0.956
  B189                      69.66       0.00       0.00       2.72      60.99       5.68      66.67        0.02    15.13   0.957
  B190                      69.66       0.00       0.00       2.72      60.99       5.68      66.67        0.02    15.13   0.957
  B191                      69.66       0.00       0.00       2.72      60.99       5.68      66.67        0.02    15.13   0.957
  B192                      69.66       0.00       0.00       2.72      60.99       5.68      66.67        0.02    15.13   0.957
  B193                      69.66       0.00       0.00       2.72      60.99       5.68      66.67        0.02    15.13   0.957
  B194                      69.66       0.00       0.00       2.72      60.96       5.67      66.63        0.04    29.64   0.956
  B195                      69.66       0.00       0.00       2.72      60.85       5.65      66.50        0.04    29.17   0.955
  B196                      69.66       0.00       0.00       2.72      60.94       5.66      66.60        0.02    15.08   0.956
  B197                      69.66       0.00       0.00       2.72      60.94       5.66      66.60        0.02    15.08   0.956
  B198                      69.66       0.00       0.00       2.72      60.94       5.66      66.60        0.02    15.08   0.956
  B199                      69.66       0.00       0.00       2.72      60.94       5.66      66.60        0.02    15.08   0.956
  B204                      69.66       0.00       0.00       2.72      60.85       5.65      66.50        0.04    29.17   0.955
  B203                      69.66       0.00       0.00       2.72      60.94       5.66      66.60        0.02    15.08   0.956
  B202                      69.66       0.00       0.00       2.72      60.94       5.66      66.60        0.02    15.08   0.956
  B200                      69.66       0.00       0.00       2.72      60.94       5.66      66.60        0.02    15.08   0.956
  B201                      69.66       0.00       0.00       2.72      60.94       5.66      66.60        0.02    15.08   0.956
  B176                      69.66       0.00       0.00       2.72      60.96       5.67      66.06        0.04    32.27   0.948
  B177                      69.66       0.00       0.00       2.72      60.99       5.68      66.10        0.02    14.98   0.949
  B178                      69.66       0.00       0.00       2.72      60.99       5.68      66.67        0.02    15.13   0.957
  B179                      69.66       0.00       0.00       2.72      60.99       5.68      66.67        0.02    15.13   0.957
  B180                      69.66       0.00       0.00       2.72      60.99       5.68      66.67        0.02    15.13   0.957
  B181                      69.66       0.00       0.00       2.72      60.99       5.68      66.67        0.02    15.13   0.957
  B182                      69.66       0.00       0.00       2.72      60.99       5.68      66.67        0.02    15.13   0.957
  B183                      69.66       0.00       0.00       2.72      60.94       5.66      66.60        0.02    15.08   0.956
  B184                      69.66       0.00       0.00       2.72      60.94       5.66      66.60        0.02    15.08   0.956
  B185                      69.66       0.00       0.00       2.72      60.94       5.66      66.60        0.02    15.08   0.956
  B186                      69.66       0.00       0.00       2.72      60.94       5.66      66.60        0.02    15.08   0.956
  B187                      69.66       0.00       0.00       2.72      60.85       5.65      65.93        0.04    28.89   0.947
  B165                      69.66       0.00       0.00       2.72      60.93       5.66      66.02        0.04    29.25   0.948
  BB166                     69.66       0.00       0.00       2.72      60.98       5.67      66.65        0.02    15.12   0.957
  BB167                     69.66       0.00       0.00       2.72      60.98       5.67      66.65        0.02    15.12   0.957
  B168                      69.66       0.00       0.00       2.72      60.99       5.68      66.67        0.02    15.13   0.957
  B169                      69.66       0.00       0.00       2.72      60.99       5.68      66.10        0.02    14.98   0.949
  B170                      69.66       0.00       0.00       2.72      60.99       5.68      66.10        0.02    14.98   0.949
  B171                      69.66       0.00       0.00       2.72      60.99       5.68      66.10        0.02    14.98   0.949
  B172                      69.66       0.00       0.00       2.72      60.99       5.68      66.10        0.02    14.98   0.949
  B173                      69.66       0.00       0.00       2.72      61.00       5.68      66.11        0.02    14.98   0.949
  B174                      69.66       0.00       0.00       2.72      61.00       5.68      66.11        0.02    14.98   0.949
  B175                      69.66       0.00       0.00       2.72      60.98       5.67      66.08        0.04    30.17   0.949
  B150                      69.66       0.00       0.00       2.72      60.98       5.67      66.65        0.04    30.53   0.957
  B151                      69.66       0.00       0.00       2.72      60.99       5.68      66.67        0.02    17.68   0.957
  B152                      69.66       0.00       0.00       2.72      60.99       5.68      66.67        0.02    17.68   0.957
  B153                      69.66       0.00       0.00       2.72      60.99       5.68      66.67        0.02    16.38   0.957
  B154                      69.66       0.00       0.00       2.72      60.99       5.68      66.67        0.02    17.10   0.957
  B155                      69.66       0.00       0.00       2.72      60.99       5.68      66.67        0.02    17.82   0.957
  B157                      69.66       0.00       0.00       2.72      60.99       5.68      66.67        0.02    15.52   0.957
  B158                      69.66       0.00       0.00       2.72      60.99       5.68      66.10        0.02    15.60   0.949
  B159                      69.66       0.00       0.00       2.72      60.97       5.67      66.08        0.02    16.63   0.949
  B160                      69.66       0.00       0.00       2.72      60.99       5.68      66.10        0.02    14.98   0.949
  B161                      69.66       0.00       0.00       2.72      60.96       5.67      66.06        0.03    19.37   0.948
  B162                      69.66       0.00       0.00       2.72      60.98       5.67      66.08        0.02    14.97   0.949
  B163                      69.66       0.00       0.00       2.72      60.92       5.66      66.01        0.05    33.97   0.948
  B164                      69.66       0.00       0.00       2.72      60.89       5.65      65.97        0.06    42.71   0.947
  B210                      69.66       0.00       0.00       2.72      60.71      35.83      66.19        0.63   410.37   0.950
  B205                      69.66       0.00       0.00       2.72      60.86       5.64      66.50        0.04    30.39   0.955
  B206                      69.66       0.00       0.00       2.72      60.93       5.66      66.59        0.02    16.50   0.956
  B207                      69.66       0.00       0.00       2.72      60.92       5.66      66.58        0.02    17.92   0.956
  B208                      69.66       0.00       0.00       2.72      60.91       5.66      66.57        0.03    19.85   0.956
  B209                      69.66       0.00       0.00       2.72      60.90       5.65      66.55        0.03    22.37   0.955
  B211                      69.66       0.00       0.00       2.72      60.84       5.64      66.48        0.05    32.46   0.954
  B212                      69.66       0.00       0.00       2.72      60.97       5.67      66.64        0.02    15.74   0.957
  B213                      69.66       0.00       0.00       2.72      60.96       5.67      66.63        0.02    17.79   0.956
  B214                      69.66       0.00       0.00       2.72      60.91       5.66      66.56        0.04    31.79   0.956
  B215                      69.66       0.00       0.00       2.72      60.96       5.67      66.62        0.03    25.12   0.956
  B216                      69.66       0.00       0.00       2.72      60.93       5.66      66.59        0.05    35.70   0.956
  B217                      69.66       0.00       0.00       2.72      60.96       5.67      66.63        0.02    15.11   0.956
  B218                      69.66       0.00       0.00       2.72      60.96       5.67      66.63        0.02    15.11   0.956
  B219                      69.66       0.00       0.00       2.72      60.96       5.67      66.63        0.02    15.11   0.956
  B220                      69.66       0.00       0.00       2.72      60.95       5.66      66.61        0.03    18.73   0.956
  B221                      69.66       0.00       0.00       2.72      60.93       5.66      66.59        0.06    41.79   0.956
  B224                      69.66       0.00       0.00       2.72      60.99       5.68      66.66        0.02    15.13   0.957
  B223                      69.66       0.00       0.00       2.72      60.99       5.68      66.66        0.02    15.13   0.957
  B222                      69.66       0.00       0.00       2.72      60.94       5.66      66.60        0.04    25.36   0.956
  
  
  ******************
  Node Depth Summary
  ******************
  
  ---------------------------------------------------------------------------------
                                 Average  Maximum  Maximum  Time of Max    Reported
                                   Depth    Depth      HGL   Occurrence   Max Depth
  Node                 Type       Meters   Meters   Meters  days hr:min      Meters
  ---------------------------------------------------------------------------------
  P1                   JUNCTION     0.09     1.44  1048.63     0  01:35        1.32
  P2                   JUNCTION     0.12     1.60  1048.62     0  01:34        1.48
  P3                   JUNCTION     0.11     1.86  1048.54     0  01:35        1.72
  P4                   JUNCTION     0.16     2.02  1048.54     0  01:35        1.89
  P5                   JUNCTION     0.13     2.02  1048.20     0  01:35        1.91
  P6                   JUNCTION     0.19     2.19  1048.20     0  01:35        2.08
  P7                   JUNCTION     0.20     2.06  1047.85     0  01:35        1.95
  P8                   JUNCTION     0.10     1.35  1046.89     0  01:34        1.30
  P9                   JUNCTION     0.18     1.52  1046.89     0  01:34        1.46
  P10                  JUNCTION     0.04     0.28  1045.22     0  01:34        0.24
  P11                  JUNCTION     0.12     0.44  1045.21     0  01:34        0.42
  P12                  JUNCTION     0.05     0.84  1045.34     0  01:33        0.47
  P13                  JUNCTION     0.13     1.06  1045.40     0  01:33        0.63
  P17                  JUNCTION     0.05     1.01  1047.16     0  01:31        0.87
  P18                  JUNCTION     0.08     1.03  1047.02     0  01:34        1.03
  P19                  JUNCTION     0.04     0.89  1046.85     0  01:31        0.83
  P20                  JUNCTION     0.11     1.29  1046.78     0  01:34        1.29
  P23                  JUNCTION     0.03     0.78  1046.45     0  01:33        0.78
  P24                  JUNCTION     0.12     1.18  1046.45     0  01:33        1.18
  P25                  JUNCTION     0.03     0.24  1044.96     0  01:33        0.20
  P26                  JUNCTION     0.10     0.38  1044.95     0  01:34        0.38
  P27                  JUNCTION     0.07     0.38  1044.59     0  01:34        0.38
  P28                  JUNCTION     0.11     0.42  1044.59     0  01:34        0.42
  P29                  JUNCTION     0.03     0.21  1044.23     0  01:34        0.21
  P30                  JUNCTION     0.10     0.39  1044.24     0  01:33        0.39
  P31                  JUNCTION     0.45     0.56  1043.95     0  01:33        0.54
  P32                  JUNCTION     0.14     0.48  1043.71     0  01:34        0.48
  P33                  JUNCTION     0.03     0.25  1042.69     0  01:35        0.17
  P34                  JUNCTION     0.11     0.37  1042.63     0  01:34        0.36
  P35                  JUNCTION     0.03     0.20  1040.88     0  01:34        0.10
  P36                  JUNCTION     0.10     0.32  1040.84     0  01:34        0.32
  P37                  JUNCTION     0.03     0.16  1037.61     0  01:35        0.12
  P38                  JUNCTION     0.10     0.34  1037.62     0  01:34        0.34
  P39                  JUNCTION     0.04     1.00  1049.17     0  01:33        0.67
  P40                  JUNCTION     0.06     1.00  1049.00     0  01:33        0.84
  P41                  JUNCTION     0.07     1.38  1048.88     0  01:34        1.25
  P42                  JUNCTION     0.17     1.95  1048.87     0  01:34        1.83
  P43                  JUNCTION     0.09     1.63  1048.54     0  01:35        1.46
  P44                  JUNCTION     0.15     1.79  1048.54     0  01:35        1.63
  P45                  JUNCTION     0.09     1.61  1047.90     0  01:35        1.50
  P46                  JUNCTION     0.15     1.78  1047.90     0  01:35        1.67
  P47                  JUNCTION     0.09     1.42  1046.76     0  01:34        1.39
  P48                  JUNCTION     0.14     1.59  1046.75     0  01:34        1.56
  P49                  JUNCTION     0.07     1.30  1045.81     0  01:30        1.19
  P50                  JUNCTION     0.14     1.37  1045.71     0  01:34        1.36
  P51                  JUNCTION     0.03     0.15  1042.86     0  01:36        0.13
  P52                  JUNCTION     0.09     0.32  1042.86     0  01:34        0.32
  P53                  JUNCTION     0.04     0.16  1038.73     0  01:31        0.16
  P54                  JUNCTION     0.09     0.31  1038.71     0  01:34        0.31
  P55                  JUNCTION     0.12     0.44  1037.70     0  01:34        0.44
  P57                  JUNCTION     0.11     0.37  1037.22     0  01:34        0.37
  P58                  JUNCTION     0.17     0.72  1036.38     0  01:34        0.67
  P22                  JUNCTION     0.04     0.91  1046.44     0  01:34        0.91
  P21                  JUNCTION     0.04     0.83  1046.53     0  01:31        0.74
  P16                  JUNCTION     0.08     0.24  1044.27     0  01:34        0.24
  P14                  JUNCTION     0.17     1.15  1045.30     0  01:33        0.66
  P84                  JUNCTION     0.00     0.04  1044.32     0  01:33        0.04
  P85                  JUNCTION     0.02     0.07  1044.32     0  01:34        0.07
  P86                  JUNCTION     0.03     0.11  1040.62     0  01:34        0.11
  P87                  JUNCTION     0.06     0.22  1037.28     0  01:34        0.22
  P88                  JUNCTION     0.05     0.20  1036.85     0  01:31        0.19
  P89                  JUNCTION     0.18     0.76  1036.82     0  01:34        0.76
  P59                  JUNCTION     0.03     0.09  1047.77     0  01:34        0.09
  P61                  JUNCTION     0.06     0.31  1046.89     0  01:34        0.29
  P62                  JUNCTION     0.08     0.66  1046.89     0  01:33        0.56
  P63                  JUNCTION     0.08     0.79  1046.81     0  01:32        0.57
  P64                  JUNCTION     0.13     0.53  1046.01     0  01:34        0.53
  P65                  JUNCTION     0.15     0.78  1046.29     0  01:33        0.78
  P66                  JUNCTION     0.12     0.44  1045.77     0  01:34        0.44
  P67                  JUNCTION     0.09     0.34  1044.72     0  01:34        0.34
  P68                  JUNCTION     0.04     0.12  1044.70     0  01:34        0.12
  P69                  JUNCTION     0.09     0.33  1042.07     0  01:34        0.33
  P70                  JUNCTION     0.03     0.11  1042.05     0  01:34        0.11
  P71                  JUNCTION     0.10     0.36  1038.63     0  01:34        0.35
  P72                  JUNCTION     0.04     0.13  1038.60     0  01:34        0.13
  P73                  JUNCTION     0.11     0.45  1037.66     0  01:34        0.45
  P74                  JUNCTION     0.15     0.58  1037.38     0  01:34        0.58
  P75                  JUNCTION     0.15     0.61  1037.18     0  01:34        0.60
  P76                  JUNCTION     0.16     0.69  1036.91     0  01:34        0.68
  P77                  JUNCTION     0.04     0.54  1036.96     0  01:33        0.52
  P78                  JUNCTION     0.07     0.26  1039.05     0  01:34        0.26
  P79                  JUNCTION     0.05     0.17  1038.76     0  01:34        0.17
  P80                  JUNCTION     0.04     0.16  1043.36     0  01:33        0.16
  P81                  JUNCTION     0.05     0.17  1043.39     0  01:34        0.17
  P82                  JUNCTION     0.04     0.13  1046.30     0  01:33        0.12
  P83                  JUNCTION     0.05     0.19  1046.39     0  01:34        0.19
  P60                  JUNCTION     0.05     0.19  1047.34     0  01:34        0.19
  P62A                 JUNCTION     0.06     0.64  1046.89     0  01:33        0.54
  P61A                 JUNCTION     0.05     0.29  1046.89     0  01:34        0.27
  P90                  JUNCTION     0.03     0.11  1047.24     0  01:34        0.11
  P91                  JUNCTION     0.03     0.11  1047.05     0  01:34        0.11
  P92                  JUNCTION     0.03     0.12  1046.22     0  01:34        0.12
  P93                  JUNCTION     0.06     0.22  1046.11     0  01:34        0.22
  P94                  JUNCTION     0.03     0.09  1045.83     0  01:34        0.09
  P95                  JUNCTION     0.06     0.24  1045.77     0  01:34        0.24
  P96                  JUNCTION     0.03     0.11  1045.49     0  01:31        0.11
  P97                  JUNCTION     0.06     0.24  1045.42     0  01:34        0.24
  E1                   OUTFALL      0.17     0.80  1035.80     0  01:33        0.66
  E32                  OUTFALL      0.18     0.73  1036.69     0  01:34        0.73
  E33                  OUTFALL      0.06     0.24  1044.62     0  01:34        0.24
  
  
  *******************
  Node Inflow Summary
  *******************
  
  -------------------------------------------------------------------------------------------------
                                  Maximum  Maximum                  Lateral       Total        Flow
                                  Lateral    Total  Time of Max      Inflow      Inflow     Balance
                                   Inflow   Inflow   Occurrence      Volume      Volume       Error
  Node                 Type           LPS      LPS  days hr:min    10^6 ltr    10^6 ltr     Percent
  -------------------------------------------------------------------------------------------------
  P1                   JUNCTION     59.85   120.03     0  01:31      0.0834      0.0835      -0.073
  P2                   JUNCTION     60.00   169.56     0  01:31      0.0836       0.167       0.045
  P3                   JUNCTION     59.70   187.23     0  01:30      0.0832      0.0835      -0.077
  P4                   JUNCTION     59.70   262.94     0  01:31      0.0832       0.334       0.089
  P5                   JUNCTION     73.93    98.01     0  01:30       0.103       0.104      -0.014
  P6                   JUNCTION     59.85   293.24     0  01:31      0.0834        0.52       0.019
  P7                   JUNCTION     57.74   324.75     0  01:34      0.0815       0.601       0.008
  P8                   JUNCTION     73.65    73.65     0  01:34       0.103       0.103       0.029
  P9                   JUNCTION     44.78   420.75     0  01:34      0.0624       0.767       0.007
  P10                  JUNCTION     44.93    44.93     0  01:34      0.0626      0.0626       0.014
  P11                  JUNCTION     44.78   486.49     0  01:34      0.0624       0.892       0.010
  P12                  JUNCTION     63.37    63.37     0  01:34      0.0891      0.0891       0.005
  P13                  JUNCTION     54.60   603.73     0  01:33      0.0762        1.06       0.007
  P17                  JUNCTION     74.63    74.63     0  01:34       0.104       0.104      -0.010
  P18                  JUNCTION     74.63   159.09     0  01:32       0.104       0.208       0.002
  P19                  JUNCTION     73.65    73.65     0  01:34       0.103       0.103       0.000
  P20                  JUNCTION     44.78   279.92     0  01:31      0.0624       0.374       0.019
  P23                  JUNCTION     28.87    32.65     0  01:31      0.0407      0.0408       0.006
  P24                  JUNCTION     28.87   343.23     0  01:34      0.0407       0.496       0.005
  P25                  JUNCTION     44.78    44.78     0  01:34      0.0624      0.0624       0.013
  P26                  JUNCTION     44.78   440.26     0  01:33      0.0624       0.621       0.010
  P27                  JUNCTION     44.78    44.78     0  01:34      0.0624      0.0624       0.007
  P28                  JUNCTION     44.78   521.75     0  01:34      0.0624       0.745       0.014
  P29                  JUNCTION     58.72    58.72     0  01:34      0.0823      0.0823       0.007
  P30                  JUNCTION     64.12   643.93     0  01:33      0.0902       0.918       0.010
  P31                  JUNCTION     29.34    29.34     0  01:34      0.0408      0.0408       1.152
  P32                  JUNCTION      0.00  1254.06     0  01:34           0        2.01       0.006
  P33                  JUNCTION     44.94    44.94     0  01:34      0.0625      0.0625       0.044
  P34                  JUNCTION      0.00  1323.94     0  01:34           0        2.08       0.006
  P35                  JUNCTION     29.96    29.96     0  01:34      0.0416      0.0417       0.045
  P36                  JUNCTION      0.00  1352.01     0  01:34           0        2.12       0.005
  P37                  JUNCTION     61.40    61.40     0  01:34      0.0854      0.0854       0.004
  P38                  JUNCTION      0.00  1397.57     0  01:34           0         2.2      -0.001
  P39                  JUNCTION     29.88    39.25     0  01:32      0.0416      0.0416      -0.067
  P40                  JUNCTION     59.76   101.51     0  01:33      0.0832       0.125      -0.018
  P41                  JUNCTION     73.34    73.34     0  01:34       0.103       0.103      -0.022
  P42                  JUNCTION     73.82   246.75     0  01:33       0.103       0.331       0.105
  P43                  JUNCTION     43.94    56.22     0  01:31      0.0616      0.0616      -0.005
  P44                  JUNCTION     43.94   301.04     0  01:30      0.0616       0.454       0.032
  P45                  JUNCTION     59.76    70.50     0  01:31      0.0832      0.0832      -0.009
  P46                  JUNCTION     59.76   382.45     0  01:31      0.0832        0.62       0.005
  P47                  JUNCTION     73.82    73.82     0  01:34       0.103       0.103       0.008
  P48                  JUNCTION     73.82   453.90     0  01:34       0.103       0.827       0.014
  P49                  JUNCTION     29.32    47.55     0  01:30      0.0408      0.0409      -0.004
  P50                  JUNCTION     29.32   497.51     0  01:34      0.0408       0.908      -0.003
  P51                  JUNCTION     44.91    44.91     0  01:34      0.0625      0.0625       0.015
  P52                  JUNCTION     44.91   582.52     0  01:34      0.0625        1.03       0.007
  P53                  JUNCTION     92.87    92.87     0  01:34       0.129       0.129       0.002
  P54                  JUNCTION     59.91   734.69     0  01:34      0.0833        1.25       0.005
  P55                  JUNCTION     31.07   765.23     0  01:34      0.0432        1.29       0.005
  P57                  JUNCTION      0.00   764.67     0  01:34           0        1.29       0.035
  P58                  JUNCTION      0.00  2144.33     0  01:34           0        3.49       0.005
  P22                  JUNCTION      0.00    43.09     0  01:30           0      0.0411      -0.057
  P21                  JUNCTION     28.87    46.11     0  01:31      0.0407      0.0408       0.008
  P16                  JUNCTION      0.00   588.89     0  01:34           0        1.06       0.007
  P14                  JUNCTION      0.00   587.95     0  01:34           0        1.06       0.014
  P84                  JUNCTION      0.00     0.39     0  01:29           0    5.02e-05       0.243
  P85                  JUNCTION     33.97    34.00     0  01:33      0.0475      0.0475       0.011
  P86                  JUNCTION     69.33   103.31     0  01:34      0.0963       0.144      -0.000
  P87                  JUNCTION     34.06   137.29     0  01:34      0.0473       0.191       0.011
  P88                  JUNCTION      0.00   137.09     0  01:34           0       0.191       0.123
  P89                  JUNCTION      0.00  1575.55     0  01:34           0        2.33      -0.000
  P59                  JUNCTION     65.32    65.32     0  01:34       0.091       0.091       0.002
  P61                  JUNCTION     42.22   140.18     0  01:33       0.059       0.196       0.016
  P62                  JUNCTION     64.81   201.76     0  01:33      0.0908       0.287       0.016
  P63                  JUNCTION     29.17   223.36     0  01:34      0.0411       0.328       0.012
  P64                  JUNCTION     45.23   678.96     0  01:34      0.0629        1.02      -0.008
  P65                  JUNCTION    410.37   410.37     0  01:34       0.632       0.632       0.042
  P66                  JUNCTION     30.16   714.99     0  01:34       0.042        1.06       0.016
  P67                  JUNCTION     74.40   849.74     0  01:34       0.104        1.27       0.017
  P68                  JUNCTION     74.12    74.12     0  01:34       0.104       0.104       0.003
  P69                  JUNCTION     44.77   949.16     0  01:34      0.0622        1.42       0.014
  P70                  JUNCTION     60.47    60.47     0  01:34       0.084       0.084      -0.000
  P71                  JUNCTION     60.52  1078.91     0  01:34       0.084        1.61       0.007
  P72                  JUNCTION     77.51    77.51     0  01:34       0.108       0.108       0.001
  P73                  JUNCTION     32.45  1109.09     0  01:34      0.0451        1.65       0.003
  P74                  JUNCTION      0.00  1109.96     0  01:34           0        1.65       0.008
  P75                  JUNCTION      0.00  1111.88     0  01:34           0        1.65       0.013
  P76                  JUNCTION      0.00  1174.18     0  01:34           0         1.7       0.007
  P77                  JUNCTION     30.17    87.08     0  01:31       0.042      0.0471      -0.120
  P78                  JUNCTION     44.94   269.66     0  01:33      0.0625       0.376       0.005
  P79                  JUNCTION     48.21   317.65     0  01:34      0.0669       0.443      -0.002
  P80                  JUNCTION     60.07   226.01     0  01:33      0.0835       0.313       0.003
  P81                  JUNCTION     47.67    47.67     0  01:34      0.0662      0.0662       0.004
  P82                  JUNCTION     59.49   125.52     0  01:33      0.0828       0.163      -0.006
  P83                  JUNCTION     57.68    57.68     0  01:34      0.0807      0.0807       0.036
  P60                  JUNCTION     32.46    97.77     0  01:34      0.0459       0.137       0.019
  P62A                 JUNCTION      0.00    17.89     0  01:33           0    0.000672      -2.126
  P61A                 JUNCTION      0.00     3.98     0  01:33           0    0.000394       0.160
  P90                  JUNCTION     60.82    60.82     0  01:34      0.0846      0.0846       0.006
  P91                  JUNCTION      0.00    60.81     0  01:34           0      0.0846       0.001
  P92                  JUNCTION     64.04    64.04     0  01:34       0.089       0.089       0.003
  P93                  JUNCTION      0.00   124.80     0  01:34           0       0.174       0.014
  P94                  JUNCTION     41.79    41.79     0  01:34      0.0582      0.0582       0.004
  P95                  JUNCTION      0.00   166.37     0  01:34           0       0.232       0.015
  P96                  JUNCTION     55.62    55.62     0  01:34      0.0773      0.0773       0.003
  P97                  JUNCTION      0.00   221.77     0  01:34           0       0.309       0.008
  E1                   OUTFALL       0.00  2124.07     0  01:34           0        3.49       0.000
  E32                  OUTFALL       0.00  1573.87     0  01:34           0        2.33       0.000
  E33                  OUTFALL       0.00   221.64     0  01:34           0       0.309       0.000
  
  
  **********************
  Node Surcharge Summary
  **********************
  
  Surcharging occurs when water rises above the top of the highest conduit.
  ---------------------------------------------------------------------
                                               Max. Height   Min. Depth
                                   Hours       Above Crown    Below Rim
  Node                 Type      Surcharged         Meters       Meters
  ---------------------------------------------------------------------
  P1                   JUNCTION        0.17          1.035        0.000
  P2                   JUNCTION        0.18          1.202        0.000
  P3                   JUNCTION        0.20          1.457        0.000
  P4                   JUNCTION        0.20          1.625        0.000
  P5                   JUNCTION        0.21          1.620        0.000
  P6                   JUNCTION        0.23          1.788        0.000
  P7                   JUNCTION        0.24          1.660        0.000
  P8                   JUNCTION        0.21          0.947        0.000
  P9                   JUNCTION        0.25          1.115        0.000
  P12                  JUNCTION        0.03          0.436        0.394
  P13                  JUNCTION        0.02          0.462        0.138
  P17                  JUNCTION        0.05          0.606        0.000
  P18                  JUNCTION        0.06          0.633        0.000
  P19                  JUNCTION        0.05          0.494        0.106
  P20                  JUNCTION        0.10          0.895        0.000
  P23                  JUNCTION        0.06          0.383        0.217
  P24                  JUNCTION        0.14          0.784        0.021
  P31                  JUNCTION        3.12          0.156        1.244
  P39                  JUNCTION        0.08          0.600        0.000
  P40                  JUNCTION        0.11          0.601        0.000
  P41                  JUNCTION        0.17          0.977        0.000
  P42                  JUNCTION        0.18          1.547        0.000
  P43                  JUNCTION        0.17          1.228        0.000
  P44                  JUNCTION        0.17          1.393        0.000
  P45                  JUNCTION        0.16          1.213        0.000
  P46                  JUNCTION        0.17          1.379        0.000
  P47                  JUNCTION        0.16          1.023        0.000
  P48                  JUNCTION        0.17          1.192        0.000
  P49                  JUNCTION        0.16          0.903        0.057
  P50                  JUNCTION        0.18          0.974        0.000
  P22                  JUNCTION        0.08          0.513        0.000
  P21                  JUNCTION        0.05          0.427        0.048
  P14                  JUNCTION        0.05          0.549        0.497
  P62                  JUNCTION        0.03          0.263        0.337
  P63                  JUNCTION        0.05          0.394        0.406
  P65                  JUNCTION        0.18          0.378        0.392
  P62A                 JUNCTION        0.03          0.240        0.000
  
  
  *********************
  Node Flooding Summary
  *********************
  
  Flooding refers to all water that overflows a node, whether it ponds or not.
  --------------------------------------------------------------------------
                                                             Total   Maximum
                                 Maximum   Time of Max       Flood    Ponded
                        Hours       Rate    Occurrence      Volume     Depth
  Node                 Flooded       LPS   days hr:min    10^6 ltr    Meters
  --------------------------------------------------------------------------
  P1                      0.12     38.57      0  01:31       0.001     0.435
  P2                      0.15    110.55      0  01:31       0.004     0.602
  P3                      0.17    177.85      0  01:30       0.002     0.877
  P4                      0.19    149.06      0  01:30       0.011     1.045
  P5                      0.19     18.39      0  01:31       0.001     1.020
  P6                      0.20     73.65      0  01:30       0.009     1.188
  P7                      0.21     71.08      0  01:30       0.006     1.060
  P8                      0.15     11.30      0  01:29       0.001     0.347
  P9                      0.19     38.94      0  01:32       0.006     0.515
  P17                     0.01     31.59      0  01:31       0.000     0.006
  P18                     0.03     25.31      0  01:31       0.000     0.033
  P20                     0.06     55.97      0  01:31       0.002     0.295
  P39                     0.01      7.64      0  01:33       0.000     0.000
  P40                     0.01     11.15      0  01:32       0.000     0.001
  P41                     0.08     12.99      0  01:33       0.000     0.302
  P42                     0.16     83.06      0  01:33       0.009     0.872
  P43                     0.14     30.89      0  01:31       0.001     0.628
  P44                     0.16     57.19      0  01:31       0.007     0.793
  P45                     0.15     60.41      0  01:31       0.001     0.613
  P46                     0.16     91.15      0  01:31       0.007     0.779
  P47                     0.13     51.59      0  01:30       0.001     0.423
  P48                     0.15     52.73      0  01:31       0.004     0.592
  P50                     0.02      4.07      0  01:34       0.000     0.014
  P22                     0.02      3.59      0  01:31       0.000     0.038
  P62A                    0.01     16.10      0  01:33       0.000     0.000
  
  
  ***********************
  Outfall Loading Summary
  ***********************
  
  -----------------------------------------------------------
                         Flow       Avg       Max       Total
                         Freq      Flow      Flow      Volume
  Outfall Node           Pcnt       LPS       LPS    10^6 ltr
  -----------------------------------------------------------
  E1                    97.47    292.67   2124.07       3.492
  E32                   97.59    194.95   1573.87       2.329
  E33                   97.40     25.92    221.64       0.309
  -----------------------------------------------------------
  System                97.49    513.54   3908.56       6.130
  
  
  
  ********************
  Link Flow Summary
  ********************
  
  -----------------------------------------------------------------------------
                                 Maximum  Time of Max   Maximum    Max/    Max/
                                  |Flow|   Occurrence   |Veloc|    Full    Full
  Link                 Type          LPS  days hr:min     m/sec    Flow   Depth
  -----------------------------------------------------------------------------
  G1                   CONDUIT    113.98     0  01:31      1.16    0.35    1.00
  G2                   CONDUIT    151.15     0  01:31      1.25    0.72    1.00
  G3                   CONDUIT    135.95     0  01:30      1.13    0.46    1.00
  G4                   CONDUIT    172.79     0  01:36      1.43    0.83    1.00
  G5                   CONDUIT     70.30     0  01:31      0.75    0.22    1.00
  G6                   CONDUIT    270.02     0  01:34      2.15    1.25    1.00
  G7                   CONDUIT    315.58     0  01:35      2.51    1.52    1.00
  G8                   CONDUIT     74.69     0  01:42      0.80    0.23    1.00
  G38                  CONDUIT     42.08     0  01:33      0.99    0.13    1.00
  G39                  CONDUIT    101.38     0  01:33      0.93    0.33    1.00
  G40                  CONDUIT    139.98     0  01:41      1.22    0.23    1.00
  G41                  CONDUIT    237.33     0  01:40      1.89    1.85    1.00
  G42                  CONDUIT     76.05     0  01:31      0.63    0.24    1.00
  G43                  CONDUIT    291.43     0  01:40      2.32    1.23    1.00
  G44                  CONDUIT     96.20     0  01:31      0.81    0.30    1.00
  G45                  CONDUIT    351.67     0  01:40      2.80    1.19    1.00
  G46                  CONDUIT     91.55     0  01:31      0.92    0.28    1.00
  G47                  CONDUIT    448.49     0  01:35      3.57    1.14    1.00
  G48                  CONDUIT     33.41     0  01:30      0.37    0.10    1.00
  G49                  CONDUIT    493.58     0  01:34      4.18    1.22    0.90
  G50                  CONDUIT     44.76     0  01:33      0.79    0.14    0.55
  G51                  CONDUIT    582.15     0  01:34      5.54    0.97    0.78
  G52                  CONDUIT     92.87     0  01:34      1.28    0.29    0.58
  G53                  CONDUIT    734.28     0  01:34      3.95    0.52    0.63
  G54                  CONDUIT    764.67     0  01:34      3.75    0.90    0.68
  G56                  CONDUIT    764.31     0  01:34      3.94    0.70    0.75
  G16                  CONDUIT     86.28     0  01:32      1.19    0.27    1.00
  G17                  CONDUIT    165.74     0  01:31      1.32    0.79    1.00
  G18                  CONDUIT     90.46     0  01:35      0.96    0.17    1.00
  G19                  CONDUIT    263.79     0  01:34      2.10    1.25    1.00
  G20                  CONDUIT     40.62     0  01:31      1.49    0.13    1.00
  G21                  CONDUIT     40.52     0  01:31      0.35    0.12    1.00
  G22                  CONDUIT     38.84     0  01:31      0.40    0.08    1.00
  G23                  CONDUIT    343.21     0  01:34      2.75    1.64    0.98
  G24                  CONDUIT     55.19     0  01:32      0.67    0.18    0.77
  G25                  CONDUIT    433.05     0  01:34      2.16    0.71    0.67
  G26                  CONDUIT     44.76     0  01:33      0.38    0.28    0.98
  G27                  CONDUIT    520.01     0  01:34      2.56    0.85    0.68
  G28                  CONDUIT     62.29     0  01:33      0.78    0.19    0.75
  G9                   CONDUIT    405.31     0  01:34      3.23    1.95    1.00
  G10                  CONDUIT     51.64     0  01:31      0.63    0.16    0.84
  G11                  CONDUIT    487.47     0  01:34      2.10    0.79    0.87
  G12                  CONDUIT     76.69     0  01:30      0.77    0.24    1.00
  G13                  CONDUIT    587.95     0  01:34      2.13    0.92    1.00
  G14                  CONDUIT    588.89     0  01:34      2.85    1.85    0.70
  G29                  CONDUIT    641.38     0  01:34      3.34    0.75    0.65
  G15                  CONDUIT    588.31     0  01:34      3.50    0.34    0.60
  G30                  CONDUIT     29.42     0  01:34      0.39    0.06    0.58
  G31                  CONDUIT   1259.64     0  01:34      4.74    0.66    0.53
  G33                  CONDUIT   1316.48     0  01:34      6.45    0.41    0.43
  G34                  CONDUIT     48.53     0  01:33      0.71    0.15    0.64
  G35                  CONDUIT   1345.56     0  01:34      6.85    0.34    0.41
  G36                  CONDUIT     62.44     0  01:33      1.01    0.19    0.61
  G37                  CONDUIT   1392.68     0  01:34      6.22    0.38    0.51
  G32                  CONDUIT     70.03     0  01:33      0.81    0.22    0.76
  G57                  CONDUIT   2124.07     0  01:34      4.79    1.00    0.95
  G58                  CONDUIT     65.31     0  01:34      1.63    0.12    0.36
  G59                  CONDUIT     97.47     0  01:34      1.63    0.47    0.48
  G61                  CONDUIT    141.22     0  01:34      1.45    0.67    0.88
  G63                  CONDUIT    195.52     0  01:34      1.77    0.95    1.00
  G64                  CONDUIT    223.35     0  01:34      1.78    1.04    1.00
  G66                  CONDUIT    410.43     0  01:34      3.27    3.06    1.00
  G65                  CONDUIT    685.27     0  01:34      2.79    1.08    0.81
  G67                  CONDUIT    707.37     0  01:34      3.65    0.88    0.65
  G68                  CONDUIT     74.11     0  01:34      1.08    0.21    0.58
  G69                  CONDUIT    850.34     0  01:34      5.27    0.60    0.56
  G70                  CONDUIT     60.46     0  01:34      1.06    0.17    0.55
  G71                  CONDUIT    947.66     0  01:34      5.68    0.59    0.57
  G72                  CONDUIT     77.50     0  01:34      1.15    0.22    0.60
  G73                  CONDUIT   1077.98     0  01:34      5.38    0.66    0.67
  G74                  CONDUIT   1109.96     0  01:34      4.29    0.80    0.86
  G75                  CONDUIT   1111.88     0  01:34      2.80    0.84    0.74
  G76                  CONDUIT   1113.75     0  01:34      2.61    0.84    0.81
  G78                  CONDUIT   1147.88     0  01:34      2.44    0.87    0.91
  G77                  CONDUIT    109.97     0  01:31      0.59    0.11    0.95
  G60                  CONDUIT      5.55     0  01:34      0.07    0.06    0.75
  G62                  CONDUIT     17.89     0  01:33      0.14    0.16    1.00
  G79                  CONDUIT     66.05     0  01:33      1.47    0.59    0.40
  G80                  CONDUIT    118.28     0  01:33      2.95    0.22    0.36
  G81                  CONDUIT     47.67     0  01:33      1.05    0.43    0.41
  G82                  CONDUIT    224.72     0  01:33      3.35    0.33    0.53
  G83                  CONDUIT    269.45     0  01:34      3.84    0.77    0.55
  G84                  CONDUIT    317.60     0  01:34      3.29    0.39    0.72
  G85                  CONDUIT      0.39     0  01:29      0.06    0.00    0.13
  G86                  CONDUIT     33.98     0  01:34      1.63    0.06    0.22
  G87                  CONDUIT    103.23     0  01:34      2.05    0.17    0.42
  G88                  CONDUIT    137.09     0  01:34      1.89    0.60    0.56
  G89                  CONDUIT    137.06     0  01:34      1.62    0.22    0.48
  G90                  CONDUIT     60.81     0  01:34      2.12    0.18    0.28
  G91                  CONDUIT     60.77     0  01:34      1.25    0.16    0.41
  G92                  CONDUIT     64.04     0  01:34      1.28    0.18    0.43
  G94                  CONDUIT     41.78     0  01:34      0.89    0.12    0.42
  G93                  CONDUIT    124.64     0  01:34      1.67    0.58    0.57
  G95                  CONDUIT    166.23     0  01:34      2.13    0.67    0.60
  G96                  CONDUIT     55.61     0  01:34      1.19    0.16    0.43
  G152                 CONDUIT   1573.87     0  01:34      3.23    1.19    0.93
  G153                 CONDUIT    221.64     0  01:34      2.85    0.66    0.59
  
  
  ***************************
  Flow Classification Summary
  ***************************
  
  -------------------------------------------------------------------------------------
                      Adjusted    ---------- Fraction of Time in Flow Class ---------- 
                       /Actual         Up    Down  Sub   Sup   Up    Down  Norm  Inlet 
  Conduit               Length    Dry  Dry   Dry   Crit  Crit  Crit  Crit  Ltd   Ctrl  
  -------------------------------------------------------------------------------------
  G1                      1.00   0.02  0.00  0.00  0.18  0.80  0.00  0.00  0.91  0.00
  G2                      1.00   0.02  0.00  0.00  0.96  0.02  0.00  0.00  0.90  0.00
  G3                      1.00   0.02  0.00  0.00  0.97  0.01  0.00  0.00  0.91  0.00
  G4                      1.00   0.02  0.00  0.00  0.17  0.81  0.00  0.00  0.90  0.00
  G5                      1.00   0.02  0.00  0.00  0.97  0.01  0.00  0.00  0.90  0.00
  G6                      1.00   0.02  0.00  0.00  0.08  0.90  0.00  0.00  0.76  0.00
  G7                      1.00   0.02  0.00  0.00  0.11  0.87  0.00  0.00  0.83  0.00
  G8                      1.00   0.02  0.00  0.00  0.96  0.02  0.00  0.00  0.87  0.00
  G38                     1.00   0.02  0.00  0.00  0.62  0.36  0.00  0.00  0.93  0.00
  G39                     1.00   0.02  0.00  0.00  0.97  0.01  0.00  0.00  0.93  0.00
  G40                     1.00   0.02  0.00  0.00  0.96  0.02  0.00  0.00  0.93  0.00
  G41                     1.00   0.02  0.00  0.00  0.98  0.00  0.00  0.00  0.00  0.00
  G42                     1.00   0.02  0.00  0.00  0.96  0.02  0.00  0.00  0.91  0.00
  G43                     1.00   0.02  0.00  0.00  0.07  0.91  0.00  0.00  0.88  0.00
  G44                     1.00   0.02  0.00  0.00  0.96  0.02  0.00  0.00  0.91  0.00
  G45                     1.00   0.02  0.00  0.00  0.06  0.92  0.00  0.00  0.29  0.00
  G46                     1.00   0.02  0.00  0.00  0.96  0.02  0.00  0.00  0.92  0.00
  G47                     1.00   0.02  0.00  0.00  0.05  0.93  0.00  0.00  0.88  0.00
  G48                     1.00   0.02  0.00  0.00  0.97  0.01  0.00  0.00  0.91  0.00
  G49                     1.00   0.02  0.00  0.00  0.00  0.98  0.00  0.00  0.01  0.00
  G50                     1.00   0.02  0.00  0.00  0.96  0.02  0.00  0.00  0.93  0.00
  G51                     1.00   0.02  0.00  0.00  0.00  0.98  0.00  0.00  0.92  0.00
  G52                     1.00   0.02  0.00  0.00  0.94  0.04  0.00  0.00  0.94  0.00
  G53                     1.00   0.02  0.00  0.00  0.00  0.98  0.00  0.00  0.97  0.00
  G54                     1.00   0.02  0.00  0.00  0.00  0.98  0.00  0.00  0.07  0.00
  G56                     1.00   0.02  0.00  0.00  0.00  0.05  0.00  0.93  0.05  0.00
  G16                     1.00   0.02  0.00  0.00  0.13  0.85  0.00  0.00  0.91  0.00
  G17                     1.00   0.02  0.00  0.00  0.65  0.33  0.00  0.00  0.93  0.00
  G18                     1.00   0.02  0.00  0.00  0.96  0.02  0.00  0.00  0.95  0.00
  G19                     1.00   0.02  0.00  0.00  0.13  0.85  0.00  0.00  0.81  0.00
  G20                     1.00   0.02  0.00  0.00  0.04  0.93  0.00  0.00  0.04  0.00
  G21                     1.00   0.02  0.00  0.00  0.98  0.00  0.00  0.00  0.93  0.00
  G22                     1.00   0.02  0.00  0.00  0.97  0.01  0.00  0.00  0.95  0.00
  G23                     1.00   0.02  0.00  0.00  0.00  0.00  0.00  0.98  0.00  0.00
  G24                     1.00   0.02  0.00  0.00  0.97  0.01  0.00  0.00  0.92  0.00
  G25                     1.00   0.02  0.00  0.00  0.01  0.97  0.00  0.00  0.87  0.00
  G26                     1.00   0.02  0.00  0.00  0.98  0.00  0.00  0.00  0.17  0.00
  G27                     1.00   0.02  0.00  0.00  0.01  0.97  0.00  0.00  0.10  0.00
  G28                     1.00   0.02  0.00  0.00  0.96  0.02  0.00  0.00  0.94  0.00
  G9                      1.00   0.02  0.00  0.00  0.00  0.00  0.00  0.98  0.00  0.00
  G10                     1.00   0.02  0.00  0.00  0.97  0.01  0.00  0.00  0.89  0.00
  G11                     1.00   0.02  0.00  0.00  0.04  0.94  0.00  0.00  0.83  0.00
  G12                     1.00   0.02  0.00  0.00  0.97  0.01  0.00  0.00  0.88  0.00
  G13                     1.00   0.02  0.00  0.00  0.15  0.83  0.00  0.00  0.48  0.00
  G14                     1.00   0.02  0.00  0.00  0.01  0.96  0.00  0.00  0.00  0.00
  G29                     1.00   0.02  0.00  0.00  0.00  0.00  0.00  0.98  0.00  0.00
  G15                     1.00   0.02  0.00  0.00  0.02  0.96  0.00  0.00  0.97  0.00
  G30                     1.00   0.02  0.06  0.00  0.00  0.00  0.92  0.00  0.00  0.00
  G31                     1.00   0.02  0.00  0.00  0.01  0.97  0.00  0.00  0.01  0.00
  G33                     1.00   0.02  0.00  0.00  0.00  0.98  0.00  0.00  0.00  0.00
  G34                     1.00   0.02  0.00  0.00  0.95  0.03  0.00  0.00  0.91  0.00
  G35                     1.00   0.02  0.00  0.00  0.00  0.98  0.00  0.00  0.97  0.00
  G36                     1.00   0.02  0.00  0.00  0.94  0.04  0.00  0.00  0.93  0.00
  G37                     1.00   0.02  0.00  0.00  0.00  0.04  0.00  0.93  0.04  0.00
  G32                     1.00   0.02  0.00  0.00  0.95  0.03  0.00  0.00  0.90  0.00
  G57                     1.00   0.02  0.00  0.00  0.00  0.98  0.00  0.00  0.25  0.00
  G58                     1.00   0.02  0.00  0.00  0.06  0.92  0.00  0.00  0.97  0.00
  G59                     1.00   0.02  0.00  0.00  0.00  0.00  0.00  0.98  0.00  0.00
  G61                     1.00   0.02  0.00  0.00  0.12  0.86  0.00  0.00  0.94  0.00
  G63                     1.00   0.02  0.00  0.00  0.03  0.95  0.00  0.00  0.78  0.00
  G64                     1.00   0.02  0.00  0.00  0.90  0.08  0.00  0.00  0.95  0.00
  G66                     1.00   0.02  0.00  0.00  0.21  0.77  0.00  0.00  0.06  0.00
  G65                     1.00   0.02  0.00  0.00  0.01  0.97  0.00  0.00  0.28  0.00
  G67                     1.00   0.02  0.00  0.00  0.01  0.97  0.00  0.00  0.01  0.00
  G68                     1.00   0.02  0.00  0.00  0.94  0.04  0.00  0.00  0.96  0.00
  G69                     1.00   0.02  0.00  0.00  0.00  0.98  0.00  0.00  0.12  0.00
  G70                     1.00   0.02  0.00  0.00  0.94  0.04  0.00  0.00  0.96  0.00
  G71                     1.00   0.02  0.00  0.00  0.00  0.98  0.00  0.00  0.97  0.00
  G72                     1.00   0.02  0.00  0.00  0.94  0.04  0.00  0.00  0.96  0.00
  G73                     1.00   0.02  0.00  0.00  0.00  0.98  0.00  0.00  0.97  0.00
  G74                     1.00   0.02  0.00  0.00  0.00  0.98  0.00  0.00  0.88  0.00
  G75                     1.00   0.02  0.00  0.00  0.00  0.98  0.00  0.00  0.52  0.00
  G76                     1.00   0.02  0.00  0.00  0.01  0.96  0.00  0.00  0.61  0.00
  G78                     1.00   0.02  0.00  0.00  0.06  0.91  0.00  0.00  0.31  0.00
  G77                     1.00   0.02  0.00  0.00  0.96  0.02  0.00  0.00  0.83  0.00
  G60                     1.00   0.02  0.02  0.00  0.96  0.00  0.00  0.00  0.04  0.00
  G62                     1.00   0.02  0.02  0.00  0.96  0.00  0.00  0.00  0.05  0.00
  G79                     1.00   0.02  0.00  0.00  0.15  0.83  0.00  0.00  0.01  0.00
  G80                     1.00   0.02  0.00  0.00  0.00  0.98  0.00  0.00  0.98  0.00
  G81                     1.00   0.02  0.00  0.00  0.98  0.00  0.00  0.00  0.09  0.00
  G82                     1.00   0.02  0.00  0.00  0.00  0.98  0.00  0.00  0.98  0.00
  G83                     1.00   0.02  0.00  0.00  0.00  0.98  0.00  0.00  0.05  0.00
  G84                     1.00   0.02  0.00  0.00  0.51  0.47  0.00  0.00  0.97  0.00
  G85                     1.00   0.02  0.63  0.00  0.35  0.00  0.00  0.00  0.44  0.00
  G86                     1.00   0.02  0.00  0.00  0.01  0.97  0.00  0.00  0.98  0.00
  G87                     1.00   0.02  0.00  0.00  0.00  0.98  0.00  0.00  0.98  0.00
  G88                     1.00   0.02  0.00  0.00  0.00  0.00  0.00  0.98  0.00  0.00
  G89                     1.00   0.02  0.00  0.00  0.03  0.02  0.00  0.93  0.03  0.00
  G90                     1.00   0.02  0.00  0.00  0.00  0.98  0.00  0.00  0.13  0.00
  G91                     1.00   0.02  0.00  0.00  0.10  0.88  0.00  0.00  0.98  0.00
  G92                     1.00   0.02  0.00  0.00  0.10  0.88  0.00  0.00  0.93  0.00
  G94                     1.00   0.02  0.00  0.00  0.96  0.02  0.00  0.00  0.97  0.00
  G93                     1.00   0.02  0.00  0.00  0.04  0.94  0.00  0.00  0.90  0.00
  G95                     1.00   0.02  0.00  0.00  0.01  0.97  0.00  0.00  0.24  0.00
  G96                     1.00   0.02  0.00  0.00  0.86  0.12  0.00  0.00  0.95  0.00
  G152                    1.00   0.02  0.00  0.00  0.02  0.96  0.00  0.00  0.27  0.00
  G153                    1.00   0.02  0.00  0.00  0.00  0.98  0.00  0.00  0.24  0.00
  
  
  *************************
  Conduit Surcharge Summary
  *************************
  
  ----------------------------------------------------------------------------
                                                           Hours        Hours 
                         --------- Hours Full --------   Above Full   Capacity
  Conduit                Both Ends  Upstream  Dnstream   Normal Flow   Limited
  ----------------------------------------------------------------------------
  G1                          0.17      0.17      0.18      0.01         0.01
  G2                          0.18      0.18      0.20      0.01         0.01
  G3                          0.19      0.19      0.20      0.01         0.01
  G4                          0.20      0.20      0.23      0.01         0.01
  G5                          0.21      0.21      0.23      0.01         0.01
  G6                          0.22      0.23      0.24      0.19         0.19
  G7                          0.24      0.24      0.25      0.22         0.22
  G8                          0.21      0.21      0.25      0.01         0.01
  G38                         0.08      0.08      0.11      0.01         0.01
  G39                         0.11      0.11      0.18      0.01         0.01
  G40                         0.16      0.16      0.18      0.01         0.01
  G41                         0.17      0.18      0.17      0.19         0.17
  G42                         0.16      0.16      0.17      0.01         0.01
  G43                         0.17      0.17      0.17      0.09         0.08
  G44                         0.16      0.16      0.17      0.01         0.01
  G45                         0.17      0.17      0.17      0.18         0.16
  G46                         0.16      0.16      0.17      0.01         0.01
  G47                         0.17      0.17      0.18      0.16         0.16
  G48                         0.16      0.16      0.18      0.01         0.01
  G49                         0.01      0.18      0.01      0.18         0.01
  G16                         0.05      0.05      0.06      0.01         0.01
  G17                         0.06      0.06      0.10      0.01         0.01
  G18                         0.05      0.05      0.10      0.01         0.01
  G19                         0.10      0.10      0.14      0.07         0.07
  G20                         0.05      0.05      0.08      0.01         0.01
  G21                         0.08      0.08      0.14      0.01         0.01
  G22                         0.06      0.06      0.14      0.01         0.01
  G23                         0.01      0.14      0.01      0.16         0.01
  G26                         0.01      0.01      0.04      0.01         0.01
  G9                          0.16      0.25      0.16      0.28         0.16
  G10                         0.01      0.01      0.04      0.01         0.01
  G11                         0.01      0.01      0.02      0.01         0.01
  G12                         0.03      0.03      0.18      0.01         0.01
  G13                         0.02      0.02      0.05      0.01         0.01
  G14                         0.01      0.05      0.01      0.24         0.01
  G30                         0.01      0.01      3.12      0.01         0.01
  G57                         0.01      0.01      0.01      0.01         0.01
  G61                         0.01      0.01      0.03      0.01         0.01
  G63                         0.03      0.03      0.05      0.01         0.01
  G64                         0.05      0.05      0.11      0.03         0.03
  G66                         0.11      0.18      0.11      0.33         0.11
  G65                         0.01      0.01      0.01      0.03         0.01
  G77                         0.01      0.01      0.06      0.01         0.01
  G62                         0.03      0.03      0.03      0.01         0.01
  G84                         0.01      0.01      0.21      0.01         0.01
  G152                        0.01      0.01      0.01      0.07         0.01
  

  Analysis begun on:  Thu Aug 21 12:33:02 2025
  Analysis ended on:  Thu Aug 21 12:33:15 2025
  Total elapsed time: 00:00:13