
  EPA STORM WATER MANAGEMENT MODEL - VERSION 5.2 (Build 5.2.4)
  PYSWMM TOOLKIT API - VERSION v1.0 (2023-11-27)
  ------------------------------------------------------------

  test 
  
  ****************
  Analysis Options
  ****************
  Flow Units ............... LPS
  Process Models:
    Rainfall/Runoff ........ YES
    RDII ................... NO
    Snowmelt ............... NO
    Groundwater ............ NO
    Flow Routing ........... YES
    Ponding Allowed ........ YES
    Water Quality .......... NO
  Infiltration Method ...... GREEN_AMPT
  Flow Routing Method ...... DYNWAVE
  Surcharge Method ......... EXTRAN
  Starting Date ............ 11/13/2024 00:00:00
  Ending Date .............. 11/13/2024 01:15:00
  Antecedent Dry Days ...... 7.0
  Report Time Step ......... 00:05:00
  Wet Time Step ............ 00:01:00
  Dry Time Step ............ 01:00:00
  Routing Time Step ........ 0.60 sec
  Variable Time Step ....... YES
  Maximum Trials ........... 8
  Number of Threads ........ 1
  Head Tolerance ........... 0.001500 m
  
  
  **************************        Volume         Depth
  Runoff Quantity Continuity     hectare-m            mm
  **************************     ---------       -------
  Total Precipitation ......         0.452        48.800
  Evaporation Loss .........         0.000         0.000
  Infiltration Loss ........         0.047         5.042
  Surface Runoff ...........         0.401        43.293
  Final Storage ............         0.002         0.214
  Continuity Error (%) .....         0.515
  
  
  **************************        Volume        Volume
  Flow Routing Continuity        hectare-m      10^6 ltr
  **************************     ---------     ---------
  Dry Weather Inflow .......         0.000         0.000
  Wet Weather Inflow .......         0.401         4.012
  Groundwater Inflow .......         0.000         0.000
  RDII Inflow ..............         0.000         0.000
  External Inflow ..........         0.000         0.000
  External Outflow .........         0.401         4.007
  Flooding Loss ............         0.000         0.000
  Evaporation Loss .........         0.000         0.000
  Exfiltration Loss ........         0.000         0.000
  Initial Stored Volume ....         0.000         0.000
  Final Stored Volume ......         0.001         0.006
  Continuity Error (%) .....        -0.010
  
  
  *************************
  Highest Continuity Errors
  *************************
  Node P31 (1.67%)
  
  
  ***************************
  Time-Step Critical Elements
  ***************************
  None
  
  
  ********************************
  Highest Flow Instability Indexes
  ********************************
  Link G66 (14)
  Link G79 (7)
  Link G65 (6)
  Link G8 (5)
  Link G30 (5)
  
  
  *********************************
  Most Frequent Nonconverging Nodes
  *********************************
  Node E1 (4.36%)
  Node E32 (4.36%)
  Node E33 (4.36%)
  Node P1 (0.59%)
  Node P24 (0.56%)
  
  
  *************************
  Routing Time Step Summary
  *************************
  Minimum Time Step           :     0.40 sec
  Average Time Step           :     0.50 sec
  Maximum Time Step           :     0.60 sec
  % of Time in Steady State   :     0.00
  Average Iterations per Step :     2.44
  % of Steps Not Converging   :     4.36
  Time Step Frequencies       :
      0.600 -  0.579 sec      :    98.83 %
      0.579 -  0.558 sec      :     0.07 %
      0.558 -  0.538 sec      :     0.02 %
      0.538 -  0.519 sec      :     0.09 %
      0.519 -  0.500 sec      :     1.00 %
  
  
  ***************************
  Subcatchment Runoff Summary
  ***************************
  
  ------------------------------------------------------------------------------------------------------------------------------
                            Total      Total      Total      Total     Imperv       Perv      Total       Total     Peak  Runoff
                           Precip      Runon       Evap      Infil     Runoff     Runoff     Runoff      Runoff   Runoff   Coeff
  Subcatchment                 mm         mm         mm         mm         mm         mm         mm    10^6 ltr      LPS
  ------------------------------------------------------------------------------------------------------------------------------
  B140                      48.80       0.00       0.00       3.77      40.73       4.35      44.64        0.03    31.40   0.915
  B139                      48.80       0.00       0.00       4.16      39.90       4.78      44.21        0.03    30.88   0.906
  B141                      48.80       0.00       0.00       4.70      38.66       5.52      43.63        0.01    14.82   0.894
  B142                      48.80       0.00       0.00       4.70      38.66       5.52      43.63        0.01    14.82   0.894
  B144                      48.80       0.00       0.00       4.70      38.66       5.52      43.63        0.01    14.82   0.894
  B145                      48.80       0.00       0.00       4.70      38.66       5.52      43.63        0.01    14.82   0.894
  B146                      48.80       0.00       0.00       4.70      38.66       5.52      43.63        0.01    14.82   0.894
  B147                      48.80       0.00       0.00       4.70      38.66       5.52      43.63        0.01    14.82   0.894
  B148                      48.80       0.00       0.00       4.70      38.66       5.52      43.63        0.01    14.82   0.894
  B149                      48.80       0.00       0.00       3.87      40.52       4.44      44.52        0.03    29.26   0.912
  B108                      48.80       0.00       0.00       4.81      38.61       5.40      43.47        0.01    14.69   0.891
  B42                       48.80       0.00       0.00       4.83      38.60       5.38      43.44        0.01    14.64   0.890
  B40                       48.80       0.00       0.00       4.83      38.60       5.38      43.44        0.01    14.64   0.890
  B38                       48.80       0.00       0.00       4.83      38.60       5.38      43.44        0.01    14.64   0.890
  B36                       48.80       0.00       0.00       4.83      38.60       5.38      43.44        0.01    14.64   0.890
  B34                       48.80       0.00       0.00       4.83      38.60       5.38      43.44        0.01    14.64   0.890
  B32                       48.80       0.00       0.00       4.83      38.60       5.38      43.44        0.01    14.64   0.890
  B30                       48.80       0.00       0.00       4.83      38.60       5.38      43.44        0.01    14.64   0.890
  B9                        48.80       0.00       0.00       4.83      38.60       5.38      43.44        0.01    14.64   0.890
  B7                        48.80       0.00       0.00       4.83      38.60       5.38      43.98        0.01    14.91   0.901
  B5                        48.80       0.00       0.00       4.83      38.60       5.38      43.44        0.01    14.64   0.890
  B3                        48.80       0.00       0.00       4.83      38.60       5.38      43.44        0.01    14.64   0.890
  B1                        48.80       0.00       0.00       4.83      38.60       5.38      43.98        0.01    14.91   0.901
  B23                       48.80       0.00       0.00       4.83      38.60       5.38      43.98        0.01    14.91   0.901
  B21                       48.80       0.00       0.00       4.83      38.60       5.38      43.44        0.01    14.64   0.890
  B19                       48.80       0.00       0.00       4.83      38.60       5.38      43.44        0.01    14.64   0.890
  B17                       48.80       0.00       0.00       4.83      38.60       5.38      43.44        0.01    14.64   0.890
  B15                       48.80       0.00       0.00       4.83      38.60       5.38      43.44        0.01    14.64   0.890
  B13                       48.80       0.00       0.00       4.83      38.60       5.38      43.44        0.01    14.64   0.890
  B11                       48.80       0.00       0.00       4.83      38.60       5.38      43.44        0.01    14.64   0.890
  B129                      48.80       0.00       0.00       4.70      38.66       5.52      43.63        0.01    14.82   0.894
  B127                      48.80       0.00       0.00       4.70      38.66       5.52      43.63        0.01    14.82   0.894
  B125                      48.80       0.00       0.00       4.70      38.66       5.52      43.63        0.01    14.82   0.894
  B123                      48.80       0.00       0.00       4.75      38.64       5.47      43.57        0.01    14.79   0.893
  B121                      48.80       0.00       0.00       4.75      38.64       5.47      43.57        0.01    14.79   0.893
  B120                      48.80       0.00       0.00       4.75      38.64       5.47      43.57        0.01    14.79   0.893
  B119                      48.80       0.00       0.00       4.75      38.64       5.47      43.57        0.01    14.79   0.893
  B113                      48.80       0.00       0.00       4.81      38.61       5.40      43.47        0.01    14.69   0.891
  B111                      48.80       0.00       0.00       4.81      38.61       5.40      43.47        0.01    14.69   0.891
  B109                      48.80       0.00       0.00       4.81      38.61       5.40      43.47        0.01    14.69   0.891
  B107                      48.80       0.00       0.00       4.81      38.61       5.40      43.47        0.01    14.69   0.891
  B105                      48.80       0.00       0.00       4.81      38.61       5.40      43.47        0.01    14.69   0.891
  B103                      48.80       0.00       0.00       4.81      38.61       5.40      43.47        0.01    14.69   0.891
  B101                      48.80       0.00       0.00       4.81      38.61       5.40      43.47        0.01    14.69   0.891
  BB118                     48.80       0.00       0.00       3.89      40.51       4.42      44.49        0.03    29.21   0.912
  B99                       48.80       0.00       0.00       3.99      40.42       4.32      44.30        0.03    28.66   0.908
  B28                       48.80       0.00       0.00       4.01      40.39       4.29      44.25        0.03    28.48   0.907
  B115                      48.80       0.00       0.00       4.81      38.61       5.40      43.47        0.01    14.69   0.891
  B22                       48.80       0.00       0.00       4.83      38.60       5.38      43.44        0.01    14.64   0.890
  B20                       48.80       0.00       0.00       4.83      38.60       5.38      43.44        0.01    14.64   0.890
  B18                       48.80       0.00       0.00       4.83      38.60       5.38      43.44        0.01    14.64   0.890
  B16                       48.80       0.00       0.00       4.83      38.60       5.38      43.44        0.01    14.64   0.890
  B14                       48.80       0.00       0.00       4.83      38.60       5.38      43.44        0.01    14.64   0.890
  B12                       48.80       0.00       0.00       4.83      38.60       5.38      43.44        0.01    14.64   0.890
  B10                       48.80       0.00       0.00       4.83      38.60       5.38      43.44        0.01    14.64   0.890
  B8                        48.80       0.00       0.00       4.83      38.60       5.38      43.98        0.01    14.91   0.901
  B6                        48.80       0.00       0.00       4.83      38.60       5.38      43.44        0.01    14.64   0.890
  B4                        48.80       0.00       0.00       4.83      38.60       5.38      43.44        0.01    14.64   0.890
  B2                        48.80       0.00       0.00       4.83      38.60       5.38      43.44        0.01    14.64   0.890
  B29                       48.80       0.00       0.00       4.83      38.60       5.38      43.44        0.01    14.64   0.890
  B31                       48.80       0.00       0.00       4.83      38.60       5.38      43.44        0.01    14.64   0.890
  B33                       48.80       0.00       0.00       4.83      38.60       5.38      43.44        0.01    14.64   0.890
  B35.                      48.80       0.00       0.00       4.83      38.60       5.38      43.44        0.01    14.64   0.890
  B37                       48.80       0.00       0.00       4.83      38.60       5.38      43.44        0.01    14.64   0.890
  B39                       48.80       0.00       0.00       4.83      38.60       5.38      43.98        0.01    14.91   0.901
  B41                       48.80       0.00       0.00       4.83      38.60       5.38      43.44        0.01    14.64   0.890
  B43                       48.80       0.00       0.00       4.83      38.60       5.38      43.44        0.01    14.64   0.890
  B27                       48.80       0.00       0.00       4.01      40.39       4.29      44.25        0.03    28.48   0.907
  B25                       48.80       0.00       0.00       4.01      40.39       4.29      44.25        0.03    28.48   0.907
  B24                       48.80       0.00       0.00       4.01      40.39       4.29      44.68        0.03    28.86   0.916
  B67                       48.80       0.00       0.00       4.01      40.39       4.29      44.25        0.03    28.48   0.907
  B68                       48.80       0.00       0.00       4.01      40.39       4.29      44.25        0.03    28.48   0.907
  B98                       48.80       0.00       0.00       3.99      40.42       4.32      44.30        0.03    28.66   0.908
  B97                       48.80       0.00       0.00       4.07      40.32       4.23      44.13        0.03    27.98   0.904
  B46                       48.80       0.00       0.00       4.19      39.98       4.61      44.13        0.02    19.60   0.904
  B45                       48.80       0.00       0.00       4.12      40.22       4.33      44.12        0.03    32.90   0.904
  B47                       48.80       0.00       0.00       4.28      39.92       4.46      43.94        0.03    33.49   0.900
  B44                       48.80       0.00       0.00       4.89      38.57       5.32      43.36        0.02    19.34   0.888
  B122                      48.80       0.00       0.00       3.88      40.51       4.43      44.50        0.03    29.23   0.912
  B124                      48.80       0.00       0.00       4.75      38.64       5.47      43.57        0.01    14.79   0.893
  B126                      48.80       0.00       0.00       4.75      38.64       5.47      43.57        0.01    14.79   0.893
  B128                      48.80       0.00       0.00       4.75      38.64       5.47      43.57        0.01    14.79   0.893
  B130                      48.80       0.00       0.00       4.75      38.64       5.47      43.57        0.01    14.79   0.893
  B132                      48.80       0.00       0.00       4.70      38.66       5.52      43.63        0.01    14.82   0.894
  B135                      48.80       0.00       0.00       4.70      38.66       5.52      43.63        0.01    14.82   0.894
  B137                      48.80       0.00       0.00       4.70      38.66       5.52      43.63        0.01    14.82   0.894
  BBB118                    48.80       0.00       0.00       3.99      40.42       4.32      44.30        0.03    28.66   0.908
  B48                       48.80       0.00       0.00       4.01      40.39       4.29      44.25        0.03    28.48   0.907
  BB117                     48.80       0.00       0.00       3.99      40.42       4.32      44.30        0.03    28.66   0.908
  B83                       48.80       0.00       0.00       4.83      38.60       5.38      43.44        0.01    14.64   0.890
  B81                       48.80       0.00       0.00       4.83      38.60       5.38      43.44        0.01    14.64   0.890
  B79                       48.80       0.00       0.00       4.83      38.60       5.38      43.44        0.01    14.64   0.890
  B77                       48.80       0.00       0.00       4.83      38.60       5.38      43.44        0.01    14.64   0.890
  B75                       48.80       0.00       0.00       4.83      38.60       5.38      43.44        0.01    14.64   0.890
  B73                       48.80       0.00       0.00       4.83      38.60       5.38      43.44        0.01    14.64   0.890
  B71                       48.80       0.00       0.00       4.83      38.60       5.38      43.44        0.01    14.64   0.890
  B69                       48.80       0.00       0.00       4.83      38.60       5.38      43.44        0.01    14.64   0.890
  B70                       48.80       0.00       0.00       4.83      38.60       5.38      43.44        0.01    14.64   0.890
  B72                       48.80       0.00       0.00       4.83      38.60       5.38      43.44        0.01    14.64   0.890
  B74                       48.80       0.00       0.00       4.83      38.60       5.38      43.44        0.01    14.64   0.890
  B76                       48.80       0.00       0.00       4.83      38.60       5.38      43.44        0.01    14.64   0.890
  B78                       48.80       0.00       0.00       4.83      38.60       5.38      43.44        0.01    14.64   0.890
  B80                       48.80       0.00       0.00       4.83      38.60       5.38      43.44        0.01    14.64   0.890
  B82                       48.80       0.00       0.00       4.83      38.60       5.38      43.44        0.01    14.64   0.890
  B84                       48.80       0.00       0.00       4.83      38.60       5.38      43.44        0.01    14.64   0.890
  B85                       48.80       0.00       0.00       4.81      38.61       5.40      43.47        0.01    14.69   0.891
  B86                       48.80       0.00       0.00       4.81      38.61       5.40      43.47        0.01    14.69   0.891
  B88                       48.80       0.00       0.00       4.81      38.61       5.40      43.47        0.01    14.69   0.891
  B90                       48.80       0.00       0.00       4.81      38.61       5.40      43.47        0.01    14.69   0.891
  B92                       48.80       0.00       0.00       4.81      38.61       5.40      43.47        0.01    14.69   0.891
  B94                       48.80       0.00       0.00       4.81      38.61       5.40      43.47        0.01    14.69   0.891
  B96                       48.80       0.00       0.00       4.81      38.61       5.40      43.47        0.01    14.69   0.891
  B95                       48.80       0.00       0.00       4.81      38.61       5.40      43.47        0.01    14.69   0.891
  B93                       48.80       0.00       0.00       4.81      38.61       5.40      43.47        0.01    14.69   0.891
  B91                       48.80       0.00       0.00       4.81      38.61       5.40      43.47        0.01    14.69   0.891
  B89                       48.80       0.00       0.00       4.81      38.61       5.40      43.47        0.01    14.69   0.891
  B87                       48.80       0.00       0.00       4.81      38.61       5.40      43.47        0.01    14.69   0.891
  B116                      48.80       0.00       0.00       4.81      38.61       5.40      43.47        0.01    14.69   0.891
  B114                      48.80       0.00       0.00       4.81      38.61       5.40      43.47        0.01    14.69   0.891
  B112                      48.80       0.00       0.00       4.81      38.61       5.40      43.47        0.01    14.69   0.891
  B110                      48.80       0.00       0.00       4.81      38.61       5.40      43.47        0.01    14.69   0.891
  B50                       48.80       0.00       0.00       4.83      38.60       5.38      43.44        0.01    14.64   0.890
  B52                       48.80       0.00       0.00       4.83      38.60       5.38      43.44        0.01    14.64   0.890
  B54                       48.80       0.00       0.00       4.83      38.60       5.38      43.44        0.01    14.64   0.890
  B56                       48.80       0.00       0.00       4.83      38.60       5.38      43.44        0.01    14.64   0.890
  B58                       48.80       0.00       0.00       4.83      38.60       5.38      43.44        0.01    14.64   0.890
  B60                       48.80       0.00       0.00       4.83      38.60       5.38      43.44        0.01    14.64   0.890
  B106                      48.80       0.00       0.00       4.81      38.61       5.40      43.47        0.01    14.69   0.891
  B104                      48.80       0.00       0.00       4.81      38.61       5.40      43.47        0.01    14.69   0.891
  B102                      48.80       0.00       0.00       4.81      38.61       5.40      43.47        0.01    14.69   0.891
  B100                      48.80       0.00       0.00       3.99      40.42       4.32      44.30        0.03    28.66   0.908
  B66                       48.80       0.00       0.00       4.01      40.39       4.29      44.25        0.03    28.48   0.907
  B62                       48.80       0.00       0.00       4.83      38.60       5.38      43.44        0.01    14.64   0.890
  B64                       48.80       0.00       0.00       4.83      38.60       5.38      43.44        0.01    14.64   0.890
  B65                       48.80       0.00       0.00       4.01      40.39       4.29      44.25        0.03    28.48   0.907
  B63                       48.80       0.00       0.00       4.83      38.60       5.38      43.44        0.01    14.64   0.890
  B61                       48.80       0.00       0.00       4.83      38.60       5.38      43.44        0.01    14.64   0.890
  B59                       48.80       0.00       0.00       4.83      38.60       5.38      43.44        0.01    14.64   0.890
  B57                       48.80       0.00       0.00       4.83      38.60       5.38      43.44        0.01    14.64   0.890
  B55                       48.80       0.00       0.00       4.83      38.60       5.38      43.44        0.01    14.64   0.890
  B53                       48.80       0.00       0.00       4.83      38.60       5.38      43.44        0.01    14.64   0.890
  B51                       48.80       0.00       0.00       4.83      38.60       5.38      43.44        0.01    14.64   0.890
  B49                       48.80       0.00       0.00       4.83      38.60       5.38      43.44        0.01    14.64   0.890
  B138                      48.80       0.00       0.00       3.59      41.12       4.14      44.84        0.03    32.99   0.919
  B188                      48.80       0.00       0.00       4.09      40.08       4.66      44.74        0.03    32.44   0.917
  B189                      48.80       0.00       0.00       4.72      38.65       5.51      44.16        0.01    15.10   0.905
  B190                      48.80       0.00       0.00       4.72      38.65       5.51      44.16        0.01    15.10   0.905
  B191                      48.80       0.00       0.00       4.72      38.65       5.51      44.16        0.01    15.10   0.905
  B192                      48.80       0.00       0.00       4.72      38.65       5.51      44.16        0.01    15.10   0.905
  B193                      48.80       0.00       0.00       4.72      38.65       5.51      44.16        0.01    15.10   0.905
  B194                      48.80       0.00       0.00       3.87      40.52       4.44      44.96        0.03    29.70   0.921
  B195                      48.80       0.00       0.00       4.01      40.39       4.30      44.69        0.03    28.88   0.916
  B196                      48.80       0.00       0.00       4.83      38.60       5.38      43.98        0.01    14.91   0.901
  B197                      48.80       0.00       0.00       4.83      38.60       5.38      43.98        0.01    14.91   0.901
  B198                      48.80       0.00       0.00       4.83      38.60       5.38      43.98        0.01    14.91   0.901
  B199                      48.80       0.00       0.00       4.83      38.60       5.38      43.98        0.01    14.91   0.901
  B204                      48.80       0.00       0.00       4.01      40.39       4.30      44.69        0.03    28.88   0.916
  B203                      48.80       0.00       0.00       4.83      38.60       5.38      43.98        0.01    14.91   0.901
  B202                      48.80       0.00       0.00       4.83      38.60       5.38      43.98        0.01    14.91   0.901
  B200                      48.80       0.00       0.00       4.83      38.60       5.38      43.98        0.01    14.91   0.901
  B201                      48.80       0.00       0.00       4.83      38.60       5.38      43.98        0.01    14.91   0.901
  B176                      48.80       0.00       0.00       3.58      41.15       4.10      44.84        0.03    32.29   0.919
  B177                      48.80       0.00       0.00       4.72      38.65       5.51      43.61        0.01    14.82   0.894
  B178                      48.80       0.00       0.00       4.72      38.65       5.51      44.16        0.01    15.10   0.905
  B179                      48.80       0.00       0.00       4.72      38.65       5.51      44.16        0.01    15.10   0.905
  B180                      48.80       0.00       0.00       4.72      38.65       5.51      44.16        0.01    15.10   0.905
  B181                      48.80       0.00       0.00       4.72      38.65       5.51      44.16        0.01    15.10   0.905
  B182                      48.80       0.00       0.00       4.72      38.65       5.51      44.16        0.01    15.10   0.905
  B183                      48.80       0.00       0.00       4.83      38.60       5.38      43.98        0.01    14.91   0.901
  B184                      48.80       0.00       0.00       4.83      38.60       5.38      43.98        0.01    14.91   0.901
  B185                      48.80       0.00       0.00       4.83      38.60       5.38      43.98        0.01    14.91   0.901
  B186                      48.80       0.00       0.00       4.83      38.60       5.38      43.98        0.01    14.91   0.901
  B187                      48.80       0.00       0.00       4.01      40.39       4.30      44.26        0.03    28.50   0.907
  B165                      48.80       0.00       0.00       3.92      40.48       4.39      44.43        0.03    29.08   0.911
  BB166                     48.80       0.00       0.00       4.76      38.64       5.46      44.10        0.01    15.06   0.904
  BB167                     48.80       0.00       0.00       4.76      38.64       5.46      44.10        0.01    15.06   0.904
  B168                      48.80       0.00       0.00       4.70      38.66       5.52      44.18        0.01    15.10   0.905
  B169                      48.80       0.00       0.00       4.70      38.66       5.52      43.62        0.01    14.82   0.894
  B170                      48.80       0.00       0.00       4.70      38.66       5.52      43.62        0.01    14.82   0.894
  B171                      48.80       0.00       0.00       4.70      38.66       5.52      43.62        0.01    14.82   0.894
  B172                      48.80       0.00       0.00       4.70      38.66       5.52      43.62        0.01    14.82   0.894
  B173                      48.80       0.00       0.00       4.69      38.66       5.53      43.64        0.01    14.83   0.894
  B174                      48.80       0.00       0.00       4.69      38.66       5.53      43.64        0.01    14.83   0.894
  B175                      48.80       0.00       0.00       3.87      40.50       4.49      44.54        0.03    30.11   0.913
  B150                      48.80       0.00       0.00       3.27      41.76       3.82      45.58        0.03    30.75   0.934
  B151                      48.80       0.00       0.00       4.41      39.29       5.18      44.47        0.02    17.68   0.911
  B152                      48.80       0.00       0.00       4.48      39.15       5.26      44.41        0.02    17.67   0.910
  B153                      48.80       0.00       0.00       4.55      39.00       5.33      44.33        0.02    16.36   0.908
  B154                      48.80       0.00       0.00       4.65      38.80       5.43      44.23        0.02    17.07   0.906
  B155                      48.80       0.00       0.00       4.65      38.80       5.43      44.23        0.02    17.79   0.906
  B157                      48.80       0.00       0.00       4.66      38.76       5.46      44.22        0.01    15.49   0.906
  B158                      48.80       0.00       0.00       4.71      38.66       5.52      43.62        0.01    15.43   0.894
  B159                      48.80       0.00       0.00       4.84      38.49       5.53      43.46        0.02    16.39   0.891
  B160                      48.80       0.00       0.00       4.70      38.66       5.52      43.62        0.01    14.82   0.894
  B161                      48.80       0.00       0.00       4.98      38.23       5.63      43.30        0.02    19.04   0.887
  B162                      48.80       0.00       0.00       4.76      38.64       5.46      43.55        0.01    14.78   0.893
  B163                      48.80       0.00       0.00       4.26      39.84       4.69      44.06        0.03    33.53   0.903
  B164                      48.80       0.00       0.00       3.83      40.73       4.18      44.49        0.04    42.36   0.912
  B210                      48.80       0.00       0.00       9.32      31.56      22.24      38.02        0.36   317.43   0.779
  B205                      48.80       0.00       0.00       3.97      40.49       4.24      44.73        0.03    30.09   0.917
  B206                      48.80       0.00       0.00       4.92      38.45       5.44      43.89        0.02    16.27   0.899
  B207                      48.80       0.00       0.00       5.01      38.29       5.50      43.79        0.02    17.62   0.897
  B208                      48.80       0.00       0.00       5.11      38.13       5.55      43.68        0.02    19.43   0.895
  B209                      48.80       0.00       0.00       5.19      38.02       5.56      43.58        0.02    21.80   0.893
  B211                      48.80       0.00       0.00       4.16      40.13       4.39      44.51        0.03    31.97   0.912
  B212                      48.80       0.00       0.00       4.92      38.34       5.59      43.93        0.01    15.63   0.900
  B213                      48.80       0.00       0.00       5.01      38.18       5.65      43.84        0.02    17.63   0.898
  B214                      48.80       0.00       0.00       4.75      38.86       5.17      44.03        0.03    31.28   0.902
  B215                      48.80       0.00       0.00       5.06      38.08       5.69      43.77        0.02    24.85   0.897
  B216                      48.80       0.00       0.00       4.69      38.93       5.18      44.10        0.03    35.27   0.904
  B217                      48.80       0.00       0.00       4.79      38.62       5.43      44.05        0.01    15.01   0.903
  B218                      48.80       0.00       0.00       4.79      38.62       5.43      44.05        0.01    15.01   0.903
  B219                      48.80       0.00       0.00       4.79      38.62       5.43      44.05        0.01    15.01   0.903
  B220                      48.80       0.00       0.00       5.04      38.17       5.62      43.79        0.02    18.49   0.897
  B221                      48.80       0.00       0.00       4.26      39.81       4.74      44.55        0.04    41.56   0.913
  B224                      48.80       0.00       0.00       4.72      38.65       5.50      44.15        0.01    15.09   0.905
  B223                      48.80       0.00       0.00       4.72      38.65       5.50      44.15        0.01    15.09   0.905
  B222                      48.80       0.00       0.00       3.60      41.13       4.07      45.20        0.02    25.43   0.926
  
  
  ******************
  Node Depth Summary
  ******************
  
  ---------------------------------------------------------------------------------
                                 Average  Maximum  Maximum  Time of Max    Reported
                                   Depth    Depth      HGL   Occurrence   Max Depth
  Node                 Type       Meters   Meters   Meters  days hr:min      Meters
  ---------------------------------------------------------------------------------
  P1                   JUNCTION     0.17     1.33  1048.52     0  00:30        1.21
  P2                   JUNCTION     0.22     1.50  1048.52     0  00:30        1.38
  P3                   JUNCTION     0.24     1.76  1048.44     0  00:30        1.63
  P4                   JUNCTION     0.31     1.92  1048.44     0  00:30        1.79
  P5                   JUNCTION     0.28     1.93  1048.11     0  00:30        1.82
  P6                   JUNCTION     0.36     2.10  1048.11     0  00:30        1.99
  P7                   JUNCTION     0.36     1.98  1047.77     0  00:30        1.88
  P8                   JUNCTION     0.21     1.30  1046.84     0  00:29        1.25
  P9                   JUNCTION     0.32     1.47  1046.84     0  00:29        1.41
  P10                  JUNCTION     0.06     0.24  1045.18     0  00:28        0.24
  P11                  JUNCTION     0.16     0.41  1045.18     0  00:29        0.41
  P12                  JUNCTION     0.08     0.47  1044.98     0  00:29        0.37
  P13                  JUNCTION     0.19     0.64  1044.98     0  00:29        0.54
  P17                  JUNCTION     0.07     1.00  1047.16     0  00:27        0.83
  P18                  JUNCTION     0.11     1.01  1047.00     0  00:27        1.00
  P19                  JUNCTION     0.06     0.79  1046.75     0  00:29        0.79
  P20                  JUNCTION     0.17     1.25  1046.74     0  00:29        1.25
  P23                  JUNCTION     0.06     0.75  1046.41     0  00:28        0.75
  P24                  JUNCTION     0.18     1.15  1046.41     0  00:29        1.14
  P25                  JUNCTION     0.05     0.24  1044.96     0  00:29        0.24
  P26                  JUNCTION     0.13     0.38  1044.94     0  00:28        0.37
  P27                  JUNCTION     0.11     0.38  1044.59     0  00:29        0.38
  P28                  JUNCTION     0.15     0.42  1044.59     0  00:29        0.42
  P29                  JUNCTION     0.05     0.21  1044.23     0  00:29        0.20
  P30                  JUNCTION     0.14     0.38  1044.23     0  00:29        0.38
  P31                  JUNCTION     0.44     0.56  1043.95     0  00:28        0.55
  P32                  JUNCTION     0.18     0.47  1043.69     0  00:28        0.47
  P33                  JUNCTION     0.05     0.25  1042.69     0  00:30        0.24
  P34                  JUNCTION     0.14     0.36  1042.62     0  00:28        0.35
  P35                  JUNCTION     0.04     0.19  1040.87     0  00:30        0.17
  P36                  JUNCTION     0.13     0.32  1040.83     0  00:29        0.31
  P37                  JUNCTION     0.04     0.16  1037.61     0  00:30        0.13
  P38                  JUNCTION     0.13     0.34  1037.62     0  00:28        0.34
  P39                  JUNCTION     0.06     0.99  1049.16     0  00:28        0.55
  P40                  JUNCTION     0.10     1.00  1049.00     0  00:28        0.72
  P41                  JUNCTION     0.15     1.27  1048.76     0  00:29        1.15
  P42                  JUNCTION     0.30     1.84  1048.76     0  00:29        1.72
  P43                  JUNCTION     0.18     1.53  1048.44     0  00:30        1.36
  P44                  JUNCTION     0.26     1.69  1048.43     0  00:30        1.53
  P45                  JUNCTION     0.19     1.52  1047.81     0  00:30        1.42
  P46                  JUNCTION     0.27     1.69  1047.81     0  00:29        1.59
  P47                  JUNCTION     0.17     1.37  1046.70     0  00:29        1.34
  P48                  JUNCTION     0.25     1.54  1046.70     0  00:29        1.50
  P49                  JUNCTION     0.15     1.36  1045.87     0  00:26        1.16
  P50                  JUNCTION     0.24     1.36  1045.69     0  00:26        1.35
  P51                  JUNCTION     0.04     0.15  1042.85     0  00:30        0.12
  P52                  JUNCTION     0.12     0.32  1042.86     0  00:29        0.32
  P53                  JUNCTION     0.05     0.16  1038.73     0  00:26        0.16
  P54                  JUNCTION     0.12     0.31  1038.71     0  00:29        0.30
  P55                  JUNCTION     0.17     0.44  1037.70     0  00:29        0.44
  P57                  JUNCTION     0.14     0.37  1037.22     0  00:29        0.37
  P58                  JUNCTION     0.23     0.66  1036.32     0  00:28        0.66
  P22                  JUNCTION     0.07     0.88  1046.41     0  00:27        0.88
  P21                  JUNCTION     0.06     0.87  1046.57     0  00:27        0.71
  P16                  JUNCTION     0.10     0.24  1044.27     0  00:29        0.23
  P14                  JUNCTION     0.23     0.69  1044.84     0  00:29        0.61
  P84                  JUNCTION     0.01     0.04  1044.32     0  00:28        0.04
  P85                  JUNCTION     0.03     0.06  1044.32     0  00:29        0.06
  P86                  JUNCTION     0.04     0.11  1040.62     0  00:29        0.11
  P87                  JUNCTION     0.08     0.22  1037.28     0  00:29        0.22
  P88                  JUNCTION     0.07     0.20  1036.85     0  00:27        0.19
  P89                  JUNCTION     0.24     0.73  1036.79     0  00:29        0.73
  P59                  JUNCTION     0.04     0.09  1047.77     0  00:29        0.09
  P61                  JUNCTION     0.08     0.23  1046.82     0  00:29        0.23
  P62                  JUNCTION     0.11     0.37  1046.60     0  00:29        0.34
  P63                  JUNCTION     0.11     0.76  1046.77     0  00:28        0.43
  P64                  JUNCTION     0.17     0.45  1045.93     0  00:29        0.45
  P65                  JUNCTION     0.19     0.59  1046.10     0  00:29        0.59
  P66                  JUNCTION     0.15     0.40  1045.72     0  00:29        0.39
  P67                  JUNCTION     0.12     0.31  1044.69     0  00:29        0.31
  P68                  JUNCTION     0.05     0.12  1044.70     0  00:29        0.12
  P69                  JUNCTION     0.12     0.31  1042.05     0  00:29        0.31
  P70                  JUNCTION     0.04     0.11  1042.05     0  00:29        0.11
  P71                  JUNCTION     0.13     0.33  1038.61     0  00:29        0.33
  P72                  JUNCTION     0.05     0.13  1038.60     0  00:25        0.13
  P73                  JUNCTION     0.14     0.41  1037.62     0  00:29        0.41
  P74                  JUNCTION     0.20     0.54  1037.34     0  00:29        0.54
  P75                  JUNCTION     0.20     0.56  1037.14     0  00:29        0.56
  P76                  JUNCTION     0.21     0.65  1036.87     0  00:29        0.65
  P77                  JUNCTION     0.08     0.49  1036.91     0  00:28        0.39
  P78                  JUNCTION     0.09     0.26  1039.05     0  00:29        0.26
  P79                  JUNCTION     0.06     0.17  1038.76     0  00:29        0.17
  P80                  JUNCTION     0.06     0.16  1043.36     0  00:28        0.16
  P81                  JUNCTION     0.06     0.17  1043.39     0  00:29        0.17
  P82                  JUNCTION     0.05     0.13  1046.30     0  00:29        0.12
  P83                  JUNCTION     0.07     0.19  1046.38     0  00:28        0.19
  P60                  JUNCTION     0.07     0.19  1047.34     0  00:29        0.19
  P62A                 JUNCTION     0.09     0.35  1046.60     0  00:29        0.32
  P61A                 JUNCTION     0.07     0.22  1046.82     0  00:29        0.22
  P90                  JUNCTION     0.04     0.11  1047.24     0  00:29        0.11
  P91                  JUNCTION     0.04     0.11  1047.04     0  00:29        0.11
  P92                  JUNCTION     0.04     0.12  1046.22     0  00:29        0.12
  P93                  JUNCTION     0.08     0.22  1046.11     0  00:29        0.22
  P94                  JUNCTION     0.04     0.09  1045.83     0  00:29        0.09
  P95                  JUNCTION     0.08     0.24  1045.77     0  00:29        0.24
  P96                  JUNCTION     0.04     0.11  1045.49     0  00:26        0.11
  P97                  JUNCTION     0.08     0.24  1045.42     0  00:29        0.24
  E1                   OUTFALL      0.23     0.66  1035.66     0  00:29        0.66
  E32                  OUTFALL      0.24     0.72  1036.68     0  00:29        0.72
  E33                  OUTFALL      0.08     0.24  1044.62     0  00:29        0.24
  
  
  *******************
  Node Inflow Summary
  *******************
  
  -------------------------------------------------------------------------------------------------
                                  Maximum  Maximum                  Lateral       Total        Flow
                                  Lateral    Total  Time of Max      Inflow      Inflow     Balance
                                   Inflow   Inflow   Occurrence      Volume      Volume       Error
  Node                 Type           LPS      LPS  days hr:min    10^6 ltr    10^6 ltr     Percent
  -------------------------------------------------------------------------------------------------
  P1                   JUNCTION     58.84   138.99     0  00:26      0.0549      0.0551      -0.056
  P2                   JUNCTION     59.10   183.60     0  00:26      0.0551        0.11       0.002
  P3                   JUNCTION     58.58   183.43     0  00:25      0.0547       0.055      -0.089
  P4                   JUNCTION     58.58   246.30     0  00:26      0.0547        0.22       0.109
  P5                   JUNCTION     72.79   106.23     0  00:25      0.0687      0.0688      -0.028
  P6                   JUNCTION     58.84   289.44     0  00:29      0.0549       0.343       0.027
  P7                   JUNCTION     56.95   320.04     0  00:29      0.0547       0.397       0.010
  P8                   JUNCTION     72.41    72.41     0  00:29      0.0684      0.0684       0.011
  P9                   JUNCTION     43.93   414.15     0  00:29       0.041       0.507       0.031
  P10                  JUNCTION     44.20    44.20     0  00:29      0.0412      0.0412       0.014
  P11                  JUNCTION     43.93   480.46     0  00:29       0.041       0.589       0.019
  P12                  JUNCTION     62.19    62.19     0  00:29      0.0592      0.0592      -0.003
  P13                  JUNCTION     53.58   591.96     0  00:29      0.0504       0.698       0.013
  P17                  JUNCTION     73.22    73.22     0  00:29      0.0684      0.0684      -0.029
  P18                  JUNCTION     73.22   155.97     0  00:27      0.0684       0.137       0.011
  P19                  JUNCTION     72.41    72.41     0  00:29      0.0684      0.0684      -0.050
  P20                  JUNCTION     43.93   273.16     0  00:27       0.041       0.246      -0.002
  P23                  JUNCTION     28.48    30.16     0  00:26      0.0273      0.0274      -0.010
  P24                  JUNCTION     28.48   338.46     0  00:29      0.0273       0.329       0.015
  P25                  JUNCTION     43.93    43.93     0  00:29       0.041       0.041       0.027
  P26                  JUNCTION     43.93   434.87     0  00:29       0.041        0.41       0.016
  P27                  JUNCTION     43.93    43.93     0  00:29       0.041       0.041       0.010
  P28                  JUNCTION     43.93   512.84     0  00:28       0.041       0.492       0.025
  P29                  JUNCTION     57.76    57.76     0  00:29      0.0547      0.0547       0.010
  P30                  JUNCTION     62.78   633.83     0  00:29      0.0598       0.607       0.017
  P31                  JUNCTION     29.26    29.26     0  00:29      0.0275      0.0275       1.694
  P32                  JUNCTION      0.00  1217.86     0  00:29           0        1.33       0.010
  P33                  JUNCTION     44.47    44.47     0  00:29      0.0412      0.0413       0.070
  P34                  JUNCTION      0.00  1284.60     0  00:29           0        1.37       0.010
  P35                  JUNCTION     29.65    29.65     0  00:29      0.0275      0.0275       0.068
  P36                  JUNCTION      0.00  1308.84     0  00:29           0         1.4       0.010
  P37                  JUNCTION     61.05    61.05     0  00:29       0.057       0.057       0.003
  P38                  JUNCTION      0.00  1359.71     0  00:29           0        1.46       0.000
  P39                  JUNCTION     29.38    38.31     0  00:28      0.0274      0.0274      -0.041
  P40                  JUNCTION     58.76    98.49     0  00:28      0.0548      0.0822      -0.062
  P41                  JUNCTION     72.05    72.05     0  00:29      0.0684      0.0684      -0.042
  P42                  JUNCTION     72.73   241.72     0  00:28      0.0685       0.219       0.139
  P43                  JUNCTION     43.35    57.37     0  00:26      0.0411      0.0411      -0.050
  P44                  JUNCTION     43.35   289.96     0  00:26      0.0411       0.301       0.063
  P45                  JUNCTION     58.76    70.83     0  00:26      0.0548      0.0548      -0.051
  P46                  JUNCTION     58.76   360.78     0  00:26      0.0548        0.41       0.012
  P47                  JUNCTION     72.73    72.73     0  00:29      0.0685      0.0685      -0.004
  P48                  JUNCTION     72.73   448.43     0  00:29      0.0685       0.547       0.022
  P49                  JUNCTION     29.21    45.36     0  00:25      0.0275      0.0276      -0.059
  P50                  JUNCTION     29.23   490.84     0  00:29      0.0275       0.602      -0.004
  P51                  JUNCTION     44.38    44.38     0  00:29      0.0412      0.0412       0.018
  P52                  JUNCTION     44.38   578.85     0  00:29      0.0412       0.684       0.014
  P53                  JUNCTION     92.25    92.25     0  00:29      0.0861      0.0861       0.002
  P54                  JUNCTION     59.26   728.70     0  00:29       0.055       0.825       0.007
  P55                  JUNCTION     30.88   758.89     0  00:29      0.0289       0.854       0.008
  P57                  JUNCTION      0.00   758.32     0  00:29           0       0.854       0.063
  P58                  JUNCTION      0.00  2113.60     0  00:29           0        2.31       0.003
  P22                  JUNCTION      0.00    40.63     0  00:26           0      0.0277      -0.007
  P21                  JUNCTION     28.48    37.86     0  00:26      0.0273      0.0274      -0.020
  P16                  JUNCTION      0.00   574.76     0  00:29           0       0.698       0.015
  P14                  JUNCTION      0.00   577.08     0  00:28           0       0.698       0.023
  P84                  JUNCTION      0.00     0.40     0  00:24           0       5e-05       0.280
  P85                  JUNCTION     33.53    33.57     0  00:28      0.0317      0.0317       0.022
  P86                  JUNCTION     68.71   102.25     0  00:29      0.0636      0.0952      -0.005
  P87                  JUNCTION     34.04   136.16     0  00:29      0.0315       0.127       0.020
  P88                  JUNCTION      0.00   135.92     0  00:29           0       0.127       0.158
  P89                  JUNCTION      0.00  1483.33     0  00:29           0        1.49       0.000
  P59                  JUNCTION     64.54    64.54     0  00:29        0.06        0.06       0.002
  P61                  JUNCTION     41.23   137.20     0  00:29      0.0387        0.13       0.020
  P62                  JUNCTION     63.98   200.68     0  00:29      0.0604        0.19       0.029
  P63                  JUNCTION     28.88   225.35     0  00:28      0.0276       0.217       0.026
  P64                  JUNCTION     44.74   576.61     0  00:29      0.0416       0.622       0.020
  P65                  JUNCTION    317.43   317.43     0  00:29       0.363       0.363       0.014
  P66                  JUNCTION     29.83   603.82     0  00:29      0.0277       0.649       0.028
  P67                  JUNCTION     73.62   747.72     0  00:29      0.0692       0.787       0.027
  P68                  JUNCTION     73.24    73.24     0  00:29      0.0689      0.0689       0.004
  P69                  JUNCTION     44.79   848.94     0  00:29      0.0417       0.884       0.024
  P70                  JUNCTION     60.20    60.20     0  00:29      0.0556      0.0556      -0.002
  P71                  JUNCTION     60.39   982.23     0  00:29      0.0556        1.01       0.012
  P72                  JUNCTION     77.30    77.30     0  00:29       0.072       0.072       0.000
  P73                  JUNCTION     32.44  1012.74     0  00:29      0.0303        1.04       0.004
  P74                  JUNCTION      0.00  1013.55     0  00:29           0        1.04       0.012
  P75                  JUNCTION      0.00  1014.76     0  00:29           0        1.04       0.024
  P76                  JUNCTION      0.00  1077.98     0  00:29           0        1.07       0.021
  P77                  JUNCTION     30.11    63.81     0  00:26      0.0283      0.0315       0.008
  P78                  JUNCTION     44.48   267.44     0  00:28      0.0412       0.249       0.010
  P79                  JUNCTION     48.42   315.65     0  00:29      0.0453       0.295      -0.008
  P80                  JUNCTION     59.57   224.24     0  00:28      0.0551       0.208       0.004
  P81                  JUNCTION     47.33    47.33     0  00:29      0.0438      0.0438       0.006
  P82                  JUNCTION     59.20   124.51     0  00:28      0.0552       0.109      -0.018
  P83                  JUNCTION     57.14    57.14     0  00:29      0.0541      0.0541       0.076
  P60                  JUNCTION     31.97    96.50     0  00:29      0.0308      0.0908       0.032
  P62A                 JUNCTION      0.00     2.81     0  00:29           0    0.000474       0.143
  P61A                 JUNCTION      0.00     1.61     0  00:24           0    0.000265       0.414
  P90                  JUNCTION     60.12    60.12     0  00:29      0.0559      0.0559       0.009
  P91                  JUNCTION      0.00    60.11     0  00:29           0      0.0559      -0.002
  P92                  JUNCTION     63.51    63.51     0  00:29      0.0587      0.0587       0.005
  P93                  JUNCTION      0.00   123.52     0  00:29           0       0.115       0.022
  P94                  JUNCTION     41.56    41.56     0  00:29      0.0389      0.0389       0.005
  P95                  JUNCTION      0.00   164.69     0  00:29           0       0.154       0.029
  P96                  JUNCTION     55.62    55.62     0  00:29      0.0518      0.0518       0.005
  P97                  JUNCTION      0.00   219.96     0  00:29           0       0.205       0.013
  E1                   OUTFALL       0.00  2112.61     0  00:29           0        2.31       0.000
  E32                  OUTFALL       0.00  1482.71     0  00:29           0        1.49       0.000
  E33                  OUTFALL       0.00   219.77     0  00:29           0       0.205       0.000
  
  
  **********************
  Node Surcharge Summary
  **********************
  
  Surcharging occurs when water rises above the top of the highest conduit.
  ---------------------------------------------------------------------
                                               Max. Height   Min. Depth
                                   Hours       Above Crown    Below Rim
  Node                 Type      Surcharged         Meters       Meters
  ---------------------------------------------------------------------
  P1                   JUNCTION        0.16          0.932        0.000
  P2                   JUNCTION        0.17          1.099        0.000
  P3                   JUNCTION        0.19          1.356        0.000
  P4                   JUNCTION        0.19          1.524        0.000
  P5                   JUNCTION        0.20          1.530        0.000
  P6                   JUNCTION        0.21          1.698        0.000
  P7                   JUNCTION        0.22          1.582        0.000
  P8                   JUNCTION        0.20          0.898        0.000
  P9                   JUNCTION        0.24          1.066        0.000
  P12                  JUNCTION        0.02          0.072        0.758
  P13                  JUNCTION        0.01          0.039        0.561
  P17                  JUNCTION        0.05          0.603        0.000
  P18                  JUNCTION        0.05          0.607        0.000
  P19                  JUNCTION        0.05          0.394        0.206
  P20                  JUNCTION        0.10          0.851        0.000
  P23                  JUNCTION        0.05          0.350        0.250
  P24                  JUNCTION        0.13          0.752        0.053
  P31                  JUNCTION        1.09          0.156        1.244
  P39                  JUNCTION        0.06          0.590        0.010
  P40                  JUNCTION        0.09          0.601        0.000
  P41                  JUNCTION        0.15          0.867        0.000
  P42                  JUNCTION        0.17          1.436        0.000
  P43                  JUNCTION        0.15          1.125        0.000
  P44                  JUNCTION        0.16          1.290        0.000
  P45                  JUNCTION        0.15          1.124        0.000
  P46                  JUNCTION        0.16          1.292        0.000
  P47                  JUNCTION        0.15          0.966        0.000
  P48                  JUNCTION        0.16          1.135        0.000
  P49                  JUNCTION        0.15          0.960        0.000
  P50                  JUNCTION        0.17          0.960        0.000
  P22                  JUNCTION        0.07          0.477        0.000
  P21                  JUNCTION        0.05          0.475        0.000
  P14                  JUNCTION        0.03          0.091        0.955
  P63                  JUNCTION        0.02          0.361        0.439
  P65                  JUNCTION        0.15          0.193        0.577
  
  
  *********************
  Node Flooding Summary
  *********************
  
  Flooding refers to all water that overflows a node, whether it ponds or not.
  --------------------------------------------------------------------------
                                                             Total   Maximum
                                 Maximum   Time of Max       Flood    Ponded
                        Hours       Rate    Occurrence      Volume     Depth
  Node                 Flooded       LPS   days hr:min    10^6 ltr    Meters
  --------------------------------------------------------------------------
  P1                      0.10     61.29      0  00:26       0.001     0.332
  P2                      0.14     74.82      0  00:26       0.003     0.499
  P3                      0.16    125.73      0  00:25       0.001     0.776
  P4                      0.18    142.63      0  00:25       0.010     0.944
  P5                      0.18     91.77      0  00:25       0.001     0.930
  P6                      0.19     93.74      0  00:25       0.008     1.098
  P7                      0.20     48.07      0  00:26       0.006     0.982
  P8                      0.13     30.01      0  00:25       0.000     0.298
  P9                      0.18     44.74      0  00:25       0.005     0.466
  P17                     0.01     25.55      0  00:27       0.000     0.003
  P18                     0.01     31.33      0  00:27       0.000     0.007
  P20                     0.05     51.45      0  00:27       0.002     0.251
  P40                     0.01      6.45      0  00:28       0.000     0.001
  P41                     0.06     11.76      0  00:28       0.000     0.192
  P42                     0.15     77.30      0  00:28       0.008     0.761
  P43                     0.13     32.73      0  00:26       0.001     0.525
  P44                     0.15     57.29      0  00:26       0.006     0.690
  P45                     0.14     17.22      0  00:26       0.001     0.524
  P46                     0.15     65.49      0  00:26       0.006     0.692
  P47                     0.11     50.57      0  00:26       0.001     0.366
  P48                     0.14     61.11      0  00:26       0.004     0.535
  P22                     0.01      6.06      0  00:27       0.000     0.002
  
  
  ***********************
  Outfall Loading Summary
  ***********************
  
  -----------------------------------------------------------
                         Flow       Avg       Max       Total
                         Freq      Flow      Flow      Volume
  Outfall Node           Pcnt       LPS       LPS    10^6 ltr
  -----------------------------------------------------------
  E1                    93.77    554.90   2112.61       2.311
  E32                   94.01    357.10   1482.71       1.491
  E33                   93.84     49.25    219.77       0.205
  -----------------------------------------------------------
  System                93.87    961.26   3808.48       4.007
  
  
  
  ********************
  Link Flow Summary
  ********************
  
  -----------------------------------------------------------------------------
                                 Maximum  Time of Max   Maximum    Max/    Max/
                                  |Flow|   Occurrence   |Veloc|    Full    Full
  Link                 Type          LPS  days hr:min     m/sec    Flow   Depth
  -----------------------------------------------------------------------------
  G1                   CONDUIT    129.65     0  00:26      1.14    0.40    1.00
  G2                   CONDUIT    138.09     0  00:26      1.24    0.66    1.00
  G3                   CONDUIT    133.03     0  00:25      1.11    0.45    1.00
  G4                   CONDUIT    172.01     0  00:26      1.46    0.82    1.00
  G5                   CONDUIT    117.78     0  00:25      0.94    0.36    1.00
  G6                   CONDUIT    265.78     0  00:29      2.12    1.23    1.00
  G7                   CONDUIT    310.64     0  00:30      2.47    1.50    1.00
  G8                   CONDUIT     89.28     0  00:25      0.77    0.27    1.00
  G38                  CONDUIT     40.11     0  00:28      0.98    0.12    1.00
  G39                  CONDUIT     98.54     0  00:28      0.91    0.32    1.00
  G40                  CONDUIT    132.94     0  00:35      1.17    0.22    1.00
  G41                  CONDUIT    236.00     0  00:35      1.88    1.84    1.00
  G42                  CONDUIT     76.12     0  00:26      0.64    0.24    1.00
  G43                  CONDUIT    288.91     0  00:35      2.30    1.22    1.00
  G44                  CONDUIT     74.52     0  00:26      0.82    0.23    1.00
  G45                  CONDUIT    345.06     0  00:34      2.75    1.17    1.00
  G46                  CONDUIT     91.65     0  00:26      0.93    0.28    1.00
  G47                  CONDUIT    443.28     0  00:30      3.53    1.12    1.00
  G48                  CONDUIT     35.14     0  00:26      0.49    0.11    1.00
  G49                  CONDUIT    490.78     0  00:29      4.15    1.22    0.90
  G50                  CONDUIT     44.23     0  00:28      0.80    0.14    0.55
  G51                  CONDUIT    577.88     0  00:29      5.53    0.96    0.78
  G52                  CONDUIT     92.26     0  00:29      1.30    0.28    0.58
  G53                  CONDUIT    728.20     0  00:29      3.94    0.51    0.62
  G54                  CONDUIT    758.32     0  00:29      3.74    0.89    0.67
  G56                  CONDUIT    757.96     0  00:29      3.93    0.69    0.70
  G16                  CONDUIT     85.16     0  00:27      1.19    0.26    1.00
  G17                  CONDUIT    161.26     0  00:27      1.32    0.77    1.00
  G18                  CONDUIT     90.67     0  00:30      0.97    0.17    1.00
  G19                  CONDUIT    257.61     0  00:29      2.05    1.22    1.00
  G20                  CONDUIT     40.63     0  00:26      1.49    0.13    1.00
  G21                  CONDUIT     40.29     0  00:26      0.36    0.12    1.00
  G22                  CONDUIT     39.42     0  00:26      0.53    0.08    1.00
  G23                  CONDUIT    338.37     0  00:29      2.71    1.62    0.98
  G24                  CONDUIT     55.92     0  00:27      0.68    0.18    0.77
  G25                  CONDUIT    426.52     0  00:29      2.16    0.69    0.66
  G26                  CONDUIT     43.85     0  00:29      0.44    0.27    0.97
  G27                  CONDUIT    510.23     0  00:29      2.55    0.83    0.67
  G28                  CONDUIT     61.52     0  00:29      0.78    0.19    0.73
  G9                   CONDUIT    398.65     0  00:29      3.17    1.91    1.00
  G10                  CONDUIT     47.57     0  00:27      0.55    0.15    0.80
  G11                  CONDUIT    482.08     0  00:29      2.09    0.78    0.84
  G12                  CONDUIT     70.58     0  00:25      0.71    0.22    1.00
  G13                  CONDUIT    577.08     0  00:28      2.13    0.91    1.00
  G14                  CONDUIT    574.76     0  00:29      2.85    1.80    0.70
  G29                  CONDUIT    629.67     0  00:29      3.32    0.73    0.64
  G15                  CONDUIT    573.54     0  00:29      3.49    0.33    0.59
  G30                  CONDUIT     29.34     0  00:29      0.39    0.06    0.58
  G31                  CONDUIT   1218.17     0  00:28      4.70    0.64    0.52
  G33                  CONDUIT   1274.55     0  00:28      6.39    0.40    0.42
  G34                  CONDUIT     46.84     0  00:29      0.86    0.14    0.62
  G35                  CONDUIT   1301.75     0  00:29      6.77    0.33    0.41
  G36                  CONDUIT     61.34     0  00:29      1.04    0.19    0.60
  G37                  CONDUIT   1357.57     0  00:28      6.21    0.37    0.47
  G32                  CONDUIT     68.95     0  00:29      1.06    0.21    0.75
  G57                  CONDUIT   2112.61     0  00:29      4.79    1.00    0.82
  G58                  CONDUIT     64.52     0  00:29      1.61    0.12    0.36
  G59                  CONDUIT     96.08     0  00:29      1.63    0.46    0.48
  G61                  CONDUIT    136.78     0  00:29      1.45    0.65    0.75
  G63                  CONDUIT    196.59     0  00:28      1.77    0.96    0.96
  G64                  CONDUIT    217.55     0  00:28      1.77    1.01    1.00
  G66                  CONDUIT    317.64     0  00:29      2.53    2.37    1.00
  G65                  CONDUIT    574.30     0  00:29      2.70    0.91    0.70
  G67                  CONDUIT    603.71     0  00:29      3.51    0.75    0.59
  G68                  CONDUIT     73.22     0  00:29      1.12    0.21    0.54
  G69                  CONDUIT    747.24     0  00:29      5.08    0.53    0.52
  G70                  CONDUIT     60.20     0  00:29      1.11    0.17    0.52
  G71                  CONDUIT    847.35     0  00:29      5.50    0.52    0.54
  G72                  CONDUIT     77.29     0  00:29      1.21    0.22    0.58
  G73                  CONDUIT    981.03     0  00:29      5.32    0.60    0.62
  G74                  CONDUIT   1013.55     0  00:29      4.21    0.73    0.80
  G75                  CONDUIT   1014.76     0  00:29      2.75    0.77    0.69
  G76                  CONDUIT   1016.24     0  00:29      2.54    0.77    0.76
  G78                  CONDUIT   1050.76     0  00:29      2.34    0.80    0.86
  G77                  CONDUIT     87.97     0  00:26      0.73    0.08    0.91
  G60                  CONDUIT      1.61     0  00:24      0.13    0.02    0.57
  G62                  CONDUIT      3.84     0  00:30      0.13    0.03    0.90
  G79                  CONDUIT     65.41     0  00:29      1.47    0.59    0.39
  G80                  CONDUIT    117.42     0  00:29      2.94    0.21    0.35
  G81                  CONDUIT     47.32     0  00:28      1.04    0.43    0.41
  G82                  CONDUIT    222.97     0  00:28      3.35    0.33    0.52
  G83                  CONDUIT    267.23     0  00:29      3.84    0.76    0.54
  G84                  CONDUIT    315.61     0  00:29      3.27    0.39    0.72
  G85                  CONDUIT      0.40     0  00:24      0.07    0.00    0.13
  G86                  CONDUIT     33.54     0  00:29      1.62    0.06    0.22
  G87                  CONDUIT    102.12     0  00:29      2.04    0.17    0.42
  G88                  CONDUIT    135.92     0  00:29      1.89    0.60    0.56
  G89                  CONDUIT    136.20     0  00:27      1.68    0.22    0.46
  G90                  CONDUIT     60.11     0  00:29      2.12    0.17    0.28
  G91                  CONDUIT     60.03     0  00:29      1.24    0.16    0.41
  G92                  CONDUIT     63.50     0  00:29      1.28    0.18    0.42
  G94                  CONDUIT     41.55     0  00:29      0.89    0.12    0.41
  G93                  CONDUIT    123.26     0  00:29      1.67    0.58    0.57
  G95                  CONDUIT    164.48     0  00:29      2.12    0.66    0.59
  G96                  CONDUIT     55.62     0  00:29      1.21    0.16    0.43
  G152                 CONDUIT   1482.71     0  00:29      3.10    1.12    0.90
  G153                 CONDUIT    219.77     0  00:29      2.84    0.66    0.59
  
  
  ***************************
  Flow Classification Summary
  ***************************
  
  -------------------------------------------------------------------------------------
                      Adjusted    ---------- Fraction of Time in Flow Class ---------- 
                       /Actual         Up    Down  Sub   Sup   Up    Down  Norm  Inlet 
  Conduit               Length    Dry  Dry   Dry   Crit  Crit  Crit  Crit  Ltd   Ctrl  
  -------------------------------------------------------------------------------------
  G1                      1.00   0.05  0.00  0.00  0.43  0.52  0.00  0.00  0.75  0.00
  G2                      1.00   0.05  0.00  0.00  0.89  0.05  0.00  0.00  0.74  0.00
  G3                      1.00   0.05  0.00  0.00  0.91  0.03  0.00  0.00  0.76  0.00
  G4                      1.00   0.05  0.00  0.00  0.41  0.53  0.00  0.00  0.71  0.00
  G5                      1.00   0.05  0.00  0.00  0.92  0.03  0.00  0.00  0.74  0.00
  G6                      1.00   0.05  0.00  0.00  0.23  0.72  0.00  0.00  0.44  0.00
  G7                      1.00   0.05  0.00  0.00  0.26  0.68  0.00  0.00  0.55  0.00
  G8                      1.00   0.05  0.00  0.00  0.91  0.04  0.00  0.00  0.67  0.00
  G38                     1.00   0.05  0.00  0.00  0.40  0.55  0.00  0.00  0.82  0.00
  G39                     1.00   0.05  0.00  0.00  0.92  0.03  0.00  0.00  0.81  0.00
  G40                     1.00   0.05  0.00  0.00  0.91  0.03  0.00  0.00  0.80  0.00
  G41                     1.00   0.05  0.00  0.00  0.91  0.04  0.00  0.00  0.00  0.00
  G42                     1.00   0.05  0.00  0.00  0.91  0.03  0.00  0.00  0.77  0.00
  G43                     1.00   0.05  0.00  0.00  0.16  0.78  0.00  0.00  0.63  0.00
  G44                     1.00   0.05  0.00  0.00  0.90  0.04  0.00  0.00  0.77  0.00
  G45                     1.00   0.05  0.00  0.00  0.14  0.81  0.00  0.00  0.46  0.00
  G46                     1.00   0.05  0.00  0.00  0.90  0.04  0.00  0.00  0.78  0.00
  G47                     1.00   0.05  0.00  0.00  0.13  0.81  0.00  0.00  0.68  0.00
  G48                     1.00   0.05  0.00  0.00  0.92  0.02  0.00  0.00  0.76  0.00
  G49                     1.00   0.05  0.00  0.00  0.00  0.94  0.00  0.00  0.02  0.00
  G50                     1.00   0.05  0.00  0.00  0.90  0.04  0.00  0.00  0.82  0.00
  G51                     1.00   0.05  0.00  0.00  0.00  0.94  0.00  0.00  0.78  0.00
  G52                     1.00   0.05  0.00  0.00  0.86  0.09  0.00  0.00  0.84  0.00
  G53                     1.00   0.05  0.00  0.00  0.00  0.95  0.00  0.00  0.93  0.00
  G54                     1.00   0.05  0.00  0.00  0.00  0.94  0.00  0.00  0.23  0.00
  G56                     1.00   0.06  0.00  0.00  0.00  0.14  0.00  0.81  0.13  0.00
  G16                     1.00   0.05  0.00  0.00  0.34  0.61  0.00  0.00  0.79  0.00
  G17                     1.00   0.05  0.00  0.00  0.52  0.43  0.00  0.00  0.83  0.00
  G18                     1.00   0.05  0.00  0.00  0.91  0.03  0.00  0.00  0.87  0.00
  G19                     1.00   0.05  0.00  0.00  0.36  0.58  0.00  0.00  0.50  0.00
  G20                     1.00   0.05  0.00  0.00  0.11  0.84  0.00  0.00  0.19  0.00
  G21                     1.00   0.05  0.00  0.00  0.93  0.01  0.00  0.00  0.82  0.00
  G22                     1.00   0.05  0.00  0.00  0.92  0.03  0.00  0.00  0.85  0.00
  G23                     1.00   0.05  0.00  0.00  0.00  0.00  0.00  0.95  0.00  0.00
  G24                     1.00   0.05  0.00  0.00  0.91  0.03  0.00  0.00  0.79  0.00
  G25                     1.00   0.05  0.00  0.00  0.01  0.94  0.00  0.00  0.63  0.00
  G26                     1.00   0.05  0.00  0.00  0.93  0.02  0.00  0.00  0.22  0.00
  G27                     1.00   0.05  0.00  0.00  0.02  0.93  0.00  0.00  0.38  0.00
  G28                     1.00   0.05  0.00  0.00  0.91  0.04  0.00  0.00  0.84  0.00
  G9                      1.00   0.05  0.00  0.00  0.00  0.00  0.00  0.95  0.00  0.00
  G10                     1.00   0.05  0.00  0.00  0.92  0.03  0.00  0.00  0.72  0.00
  G11                     1.00   0.05  0.00  0.00  0.07  0.88  0.00  0.00  0.55  0.00
  G12                     1.00   0.05  0.00  0.00  0.92  0.03  0.00  0.00  0.67  0.00
  G13                     1.00   0.05  0.00  0.00  0.35  0.59  0.00  0.00  0.25  0.00
  G14                     1.00   0.06  0.00  0.00  0.02  0.92  0.00  0.00  0.00  0.00
  G29                     1.00   0.05  0.00  0.00  0.00  0.00  0.00  0.95  0.00  0.00
  G15                     1.00   0.06  0.01  0.00  0.03  0.91  0.00  0.00  0.94  0.00
  G30                     1.00   0.05  0.06  0.00  0.00  0.00  0.88  0.00  0.00  0.00
  G31                     1.00   0.06  0.00  0.00  0.02  0.92  0.00  0.00  0.02  0.00
  G33                     1.00   0.06  0.00  0.00  0.00  0.94  0.00  0.00  0.00  0.00
  G34                     1.00   0.05  0.00  0.00  0.89  0.05  0.00  0.00  0.78  0.00
  G35                     1.00   0.06  0.00  0.00  0.00  0.94  0.00  0.00  0.88  0.00
  G36                     1.00   0.05  0.00  0.00  0.88  0.07  0.00  0.00  0.83  0.00
  G37                     1.00   0.06  0.00  0.00  0.00  0.12  0.00  0.83  0.10  0.00
  G32                     1.00   0.05  0.00  0.00  0.89  0.05  0.00  0.00  0.76  0.00
  G57                     1.00   0.06  0.00  0.00  0.00  0.94  0.00  0.00  0.54  0.00
  G58                     1.00   0.05  0.00  0.00  0.21  0.74  0.00  0.00  0.93  0.00
  G59                     1.00   0.05  0.00  0.00  0.00  0.00  0.00  0.95  0.00  0.00
  G61                     1.00   0.05  0.00  0.00  0.29  0.66  0.00  0.00  0.85  0.00
  G63                     1.00   0.05  0.00  0.00  0.10  0.85  0.00  0.00  0.54  0.00
  G64                     1.00   0.05  0.00  0.00  0.72  0.23  0.00  0.00  0.85  0.00
  G66                     1.00   0.05  0.00  0.00  0.45  0.49  0.00  0.00  0.03  0.00
  G65                     1.00   0.05  0.00  0.00  0.01  0.94  0.00  0.00  0.63  0.00
  G67                     1.00   0.05  0.00  0.00  0.01  0.93  0.00  0.00  0.02  0.00
  G68                     1.00   0.05  0.00  0.00  0.82  0.12  0.00  0.00  0.89  0.00
  G69                     1.00   0.05  0.00  0.00  0.00  0.94  0.00  0.00  0.12  0.00
  G70                     1.00   0.05  0.00  0.00  0.86  0.09  0.00  0.00  0.90  0.00
  G71                     1.00   0.05  0.00  0.00  0.00  0.94  0.00  0.00  0.93  0.00
  G72                     1.00   0.05  0.00  0.00  0.84  0.10  0.00  0.00  0.89  0.00
  G73                     1.00   0.05  0.00  0.00  0.00  0.94  0.00  0.00  0.90  0.00
  G74                     1.00   0.05  0.00  0.00  0.00  0.94  0.00  0.00  0.75  0.00
  G75                     1.00   0.06  0.00  0.00  0.01  0.94  0.00  0.00  0.56  0.00
  G76                     1.00   0.06  0.00  0.00  0.01  0.93  0.00  0.00  0.54  0.00
  G78                     1.00   0.06  0.00  0.00  0.13  0.81  0.00  0.00  0.30  0.00
  G77                     1.00   0.05  0.00  0.00  0.91  0.03  0.00  0.00  0.59  0.00
  G60                     1.00   0.05  0.02  0.00  0.93  0.00  0.00  0.00  0.09  0.00
  G62                     1.00   0.05  0.02  0.00  0.92  0.00  0.00  0.00  0.11  0.00
  G79                     1.00   0.05  0.00  0.00  0.21  0.73  0.00  0.00  0.02  0.00
  G80                     1.00   0.05  0.00  0.00  0.00  0.94  0.00  0.00  0.95  0.00
  G81                     1.00   0.05  0.00  0.00  0.92  0.03  0.00  0.00  0.26  0.00
  G82                     1.00   0.05  0.00  0.00  0.00  0.95  0.00  0.00  0.94  0.00
  G83                     1.00   0.05  0.00  0.00  0.00  0.94  0.00  0.00  0.14  0.00
  G84                     1.00   0.05  0.00  0.00  0.52  0.42  0.00  0.00  0.93  0.00
  G85                     1.00   0.05  0.10  0.00  0.85  0.00  0.00  0.00  0.39  0.00
  G86                     1.00   0.05  0.00  0.00  0.01  0.94  0.00  0.00  0.94  0.00
  G87                     1.00   0.05  0.00  0.00  0.00  0.94  0.00  0.00  0.94  0.00
  G88                     1.00   0.05  0.00  0.00  0.00  0.00  0.00  0.95  0.00  0.00
  G89                     1.00   0.06  0.00  0.00  0.05  0.06  0.00  0.83  0.07  0.00
  G90                     1.00   0.05  0.00  0.00  0.00  0.94  0.00  0.00  0.36  0.00
  G91                     1.00   0.06  0.00  0.00  0.25  0.69  0.00  0.00  0.93  0.00
  G92                     1.00   0.05  0.00  0.00  0.26  0.68  0.00  0.00  0.83  0.00
  G94                     1.00   0.05  0.00  0.00  0.91  0.04  0.00  0.00  0.92  0.00
  G93                     1.00   0.06  0.00  0.00  0.11  0.83  0.00  0.00  0.75  0.00
  G95                     1.00   0.06  0.00  0.00  0.02  0.92  0.00  0.00  0.51  0.00
  G96                     1.00   0.05  0.00  0.00  0.67  0.28  0.00  0.00  0.85  0.00
  G152                    1.00   0.06  0.00  0.00  0.03  0.91  0.00  0.00  0.50  0.00
  G153                    1.00   0.06  0.00  0.00  0.00  0.94  0.00  0.00  0.49  0.00
  
  
  *************************
  Conduit Surcharge Summary
  *************************
  
  ----------------------------------------------------------------------------
                                                           Hours        Hours 
                         --------- Hours Full --------   Above Full   Capacity
  Conduit                Both Ends  Upstream  Dnstream   Normal Flow   Limited
  ----------------------------------------------------------------------------
  G1                          0.16      0.16      0.17      0.01         0.01
  G2                          0.17      0.17      0.19      0.01         0.01
  G3                          0.18      0.18      0.19      0.01         0.01
  G4                          0.19      0.19      0.21      0.01         0.01
  G5                          0.20      0.20      0.21      0.01         0.01
  G6                          0.21      0.21      0.22      0.18         0.18
  G7                          0.22      0.22      0.24      0.21         0.21
  G8                          0.20      0.20      0.24      0.01         0.01
  G38                         0.06      0.06      0.09      0.01         0.01
  G39                         0.09      0.09      0.17      0.01         0.01
  G40                         0.15      0.15      0.17      0.01         0.01
  G41                         0.16      0.17      0.16      0.18         0.16
  G42                         0.15      0.15      0.16      0.01         0.01
  G43                         0.16      0.16      0.16      0.07         0.06
  G44                         0.15      0.15      0.16      0.01         0.01
  G45                         0.16      0.16      0.16      0.17         0.15
  G46                         0.15      0.15      0.16      0.01         0.01
  G47                         0.16      0.16      0.17      0.15         0.15
  G48                         0.15      0.15      0.17      0.01         0.01
  G49                         0.01      0.17      0.01      0.17         0.01
  G16                         0.05      0.05      0.05      0.01         0.01
  G17                         0.05      0.05      0.10      0.01         0.01
  G18                         0.05      0.05      0.10      0.01         0.01
  G19                         0.10      0.10      0.13      0.06         0.06
  G20                         0.05      0.05      0.07      0.01         0.01
  G21                         0.07      0.07      0.13      0.01         0.01
  G22                         0.05      0.05      0.13      0.01         0.01
  G23                         0.01      0.13      0.01      0.16         0.01
  G26                         0.01      0.01      0.04      0.01         0.01
  G9                          0.15      0.24      0.15      0.25         0.15
  G10                         0.01      0.01      0.03      0.01         0.01
  G11                         0.01      0.01      0.01      0.01         0.01
  G12                         0.02      0.02      0.17      0.01         0.01
  G13                         0.01      0.01      0.03      0.01         0.01
  G14                         0.01      0.03      0.01      0.22         0.01
  G30                         0.01      0.01      1.09      0.01         0.01
  G63                         0.01      0.01      0.02      0.01         0.01
  G64                         0.02      0.02      0.07      0.02         0.01
  G66                         0.07      0.15      0.07      0.28         0.07
  G77                         0.01      0.01      0.04      0.01         0.01
  G84                         0.01      0.01      0.20      0.01         0.01
  G152                        0.01      0.01      0.01      0.05         0.01
  

  Analysis begun on:  Thu Aug 21 12:33:31 2025
  Analysis ended on:  Thu Aug 21 12:33:37 2025
  Total elapsed time: 00:00:06