
  EPA STORM WATER MANAGEMENT MODEL - VERSION 5.2 (Build 5.2.4)
  PYSWMM TOOLKIT API - VERSION v1.0 (2023-11-27)
  ------------------------------------------------------------

  test 
  
  ****************
  Analysis Options
  ****************
  Flow Units ............... LPS
  Process Models:
    Rainfall/Runoff ........ YES
    RDII ................... NO
    Snowmelt ............... NO
    Groundwater ............ NO
    Flow Routing ........... YES
    Ponding Allowed ........ YES
    Water Quality .......... NO
  Infiltration Method ...... GREEN_AMPT
  Flow Routing Method ...... DYNWAVE
  Surcharge Method ......... EXTRAN
  Starting Date ............ 11/13/2024 00:00:00
  Ending Date .............. 11/13/2024 01:55:00
  Antecedent Dry Days ...... 7.0
  Report Time Step ......... 00:05:00
  Wet Time Step ............ 00:01:00
  Dry Time Step ............ 01:00:00
  Routing Time Step ........ 0.60 sec
  Variable Time Step ....... YES
  Maximum Trials ........... 8
  Number of Threads ........ 1
  Head Tolerance ........... 0.001500 m
  
  
  **************************        Volume         Depth
  Runoff Quantity Continuity     hectare-m            mm
  **************************     ---------       -------
  Total Precipitation ......         0.541        58.390
  Evaporation Loss .........         0.000         0.000
  Infiltration Loss ........         0.035         3.732
  Surface Runoff ...........         0.504        54.348
  Final Storage ............         0.001         0.138
  Continuity Error (%) .....         0.294
  
  
  **************************        Volume        Volume
  Flow Routing Continuity        hectare-m      10^6 ltr
  **************************     ---------     ---------
  Dry Weather Inflow .......         0.000         0.000
  Wet Weather Inflow .......         0.504         5.037
  Groundwater Inflow .......         0.000         0.000
  RDII Inflow ..............         0.000         0.000
  External Inflow ..........         0.000         0.000
  External Outflow .........         0.503         5.031
  Flooding Loss ............         0.000         0.000
  Evaporation Loss .........         0.000         0.000
  Exfiltration Loss ........         0.000         0.000
  Initial Stored Volume ....         0.000         0.000
  Final Stored Volume ......         0.001         0.006
  Continuity Error (%) .....        -0.007
  
  
  *************************
  Highest Continuity Errors
  *************************
  Node P31 (1.38%)
  
  
  ***************************
  Time-Step Critical Elements
  ***************************
  None
  
  
  ********************************
  Highest Flow Instability Indexes
  ********************************
  Link G66 (13)
  Link G65 (6)
  Link G79 (5)
  Link G48 (4)
  Link G8 (3)
  
  
  *********************************
  Most Frequent Nonconverging Nodes
  *********************************
  Node E1 (3.19%)
  Node E32 (3.19%)
  Node E33 (3.19%)
  Node P24 (0.38%)
  Node P9 (0.35%)
  
  
  *************************
  Routing Time Step Summary
  *************************
  Minimum Time Step           :     0.40 sec
  Average Time Step           :     0.50 sec
  Maximum Time Step           :     0.60 sec
  % of Time in Steady State   :     0.00
  Average Iterations per Step :     2.32
  % of Steps Not Converging   :     3.19
  Time Step Frequencies       :
      0.600 -  0.579 sec      :    99.09 %
      0.579 -  0.558 sec      :     0.09 %
      0.558 -  0.538 sec      :     0.03 %
      0.538 -  0.519 sec      :     0.03 %
      0.519 -  0.500 sec      :     0.77 %
  
  
  ***************************
  Subcatchment Runoff Summary
  ***************************
  
  ------------------------------------------------------------------------------------------------------------------------------
                            Total      Total      Total      Total     Imperv       Perv      Total       Total     Peak  Runoff
                           Precip      Runon       Evap      Infil     Runoff     Runoff     Runoff      Runoff   Runoff   Coeff
  Subcatchment                 mm         mm         mm         mm         mm         mm         mm    10^6 ltr      LPS
  ------------------------------------------------------------------------------------------------------------------------------
  B140                      58.39       0.00       0.00       3.64      51.11       3.67      54.41        0.04    31.81   0.932
  B139                      58.39       0.00       0.00       3.64      51.11       3.67      54.41        0.04    31.43   0.932
  B141                      58.39       0.00       0.00       3.62      51.14       3.69      54.46        0.02    15.15   0.933
  B142                      58.39       0.00       0.00       3.62      51.14       3.69      54.46        0.02    15.15   0.933
  B144                      58.39       0.00       0.00       3.62      51.14       3.69      54.46        0.02    15.15   0.933
  B145                      58.39       0.00       0.00       3.62      51.14       3.69      54.46        0.02    15.15   0.933
  B146                      58.39       0.00       0.00       3.62      51.14       3.69      54.46        0.02    15.15   0.933
  B147                      58.39       0.00       0.00       3.62      51.14       3.69      54.46        0.02    15.15   0.933
  B148                      58.39       0.00       0.00       3.62      51.14       3.69      54.46        0.02    15.15   0.933
  B149                      58.39       0.00       0.00       3.64      51.10       3.66      54.40        0.03    29.69   0.932
  B108                      58.39       0.00       0.00       3.65      51.09       3.66      54.38        0.02    15.12   0.931
  B42                       58.39       0.00       0.00       3.66      51.07       3.65      54.36        0.02    15.11   0.931
  B40                       58.39       0.00       0.00       3.66      51.07       3.65      54.36        0.02    15.11   0.931
  B38                       58.39       0.00       0.00       3.66      51.07       3.65      54.36        0.02    15.11   0.931
  B36                       58.39       0.00       0.00       3.66      51.07       3.65      54.36        0.02    15.11   0.931
  B34                       58.39       0.00       0.00       3.66      51.07       3.65      54.36        0.02    15.11   0.931
  B32                       58.39       0.00       0.00       3.66      51.07       3.65      54.36        0.02    15.11   0.931
  B30                       58.39       0.00       0.00       3.66      51.07       3.65      54.36        0.02    15.11   0.931
  B9                        58.39       0.00       0.00       3.66      51.07       3.65      54.36        0.02    15.11   0.931
  B7                        58.39       0.00       0.00       3.66      51.07       3.65      54.73        0.02    15.27   0.937
  B5                        58.39       0.00       0.00       3.66      51.07       3.65      54.36        0.02    15.11   0.931
  B3                        58.39       0.00       0.00       3.66      51.07       3.65      54.36        0.02    15.11   0.931
  B1                        58.39       0.00       0.00       3.66      51.07       3.65      54.73        0.02    15.27   0.937
  B23                       58.39       0.00       0.00       3.66      51.07       3.65      54.73        0.02    15.27   0.937
  B21                       58.39       0.00       0.00       3.66      51.07       3.65      54.36        0.02    15.11   0.931
  B19                       58.39       0.00       0.00       3.66      51.07       3.65      54.36        0.02    15.11   0.931
  B17                       58.39       0.00       0.00       3.66      51.07       3.65      54.36        0.02    15.11   0.931
  B15                       58.39       0.00       0.00       3.66      51.07       3.65      54.36        0.02    15.11   0.931
  B13                       58.39       0.00       0.00       3.66      51.07       3.65      54.36        0.02    15.11   0.931
  B11                       58.39       0.00       0.00       3.66      51.07       3.65      54.36        0.02    15.11   0.931
  B129                      58.39       0.00       0.00       3.62      51.14       3.69      54.46        0.02    15.15   0.933
  B127                      58.39       0.00       0.00       3.62      51.14       3.69      54.46        0.02    15.15   0.933
  B125                      58.39       0.00       0.00       3.62      51.14       3.69      54.46        0.02    15.15   0.933
  B123                      58.39       0.00       0.00       3.63      51.12       3.68      54.43        0.02    15.14   0.932
  B121                      58.39       0.00       0.00       3.63      51.12       3.68      54.43        0.02    15.14   0.932
  B120                      58.39       0.00       0.00       3.63      51.12       3.68      54.43        0.02    15.14   0.932
  B119                      58.39       0.00       0.00       3.63      51.12       3.68      54.43        0.02    15.14   0.932
  B113                      58.39       0.00       0.00       3.65      51.09       3.66      54.38        0.02    15.12   0.931
  B111                      58.39       0.00       0.00       3.65      51.09       3.66      54.38        0.02    15.12   0.931
  B109                      58.39       0.00       0.00       3.65      51.09       3.66      54.38        0.02    15.12   0.931
  B107                      58.39       0.00       0.00       3.65      51.09       3.66      54.38        0.02    15.12   0.931
  B105                      58.39       0.00       0.00       3.65      51.09       3.66      54.38        0.02    15.12   0.931
  B103                      58.39       0.00       0.00       3.65      51.09       3.66      54.38        0.02    15.12   0.931
  B101                      58.39       0.00       0.00       3.65      51.09       3.66      54.38        0.02    15.12   0.931
  BB118                     58.39       0.00       0.00       3.65      51.09       3.66      54.38        0.03    29.67   0.931
  B99                       58.39       0.00       0.00       3.68      50.99       3.62      54.25        0.03    29.33   0.929
  B28                       58.39       0.00       0.00       3.69      50.97       3.61      54.22        0.03    29.20   0.929
  B115                      58.39       0.00       0.00       3.65      51.09       3.66      54.38        0.02    15.12   0.931
  B22                       58.39       0.00       0.00       3.66      51.07       3.65      54.36        0.02    15.11   0.931
  B20                       58.39       0.00       0.00       3.66      51.07       3.65      54.36        0.02    15.11   0.931
  B18                       58.39       0.00       0.00       3.66      51.07       3.65      54.36        0.02    15.11   0.931
  B16                       58.39       0.00       0.00       3.66      51.07       3.65      54.36        0.02    15.11   0.931
  B14                       58.39       0.00       0.00       3.66      51.07       3.65      54.36        0.02    15.11   0.931
  B12                       58.39       0.00       0.00       3.66      51.07       3.65      54.36        0.02    15.11   0.931
  B10                       58.39       0.00       0.00       3.66      51.07       3.65      54.36        0.02    15.11   0.931
  B8                        58.39       0.00       0.00       3.66      51.07       3.65      54.73        0.02    15.27   0.937
  B6                        58.39       0.00       0.00       3.66      51.07       3.65      54.36        0.02    15.11   0.931
  B4                        58.39       0.00       0.00       3.66      51.07       3.65      54.36        0.02    15.11   0.931
  B2                        58.39       0.00       0.00       3.66      51.07       3.65      54.36        0.02    15.11   0.931
  B29                       58.39       0.00       0.00       3.66      51.07       3.65      54.36        0.02    15.11   0.931
  B31                       58.39       0.00       0.00       3.66      51.07       3.65      54.36        0.02    15.11   0.931
  B33                       58.39       0.00       0.00       3.66      51.07       3.65      54.36        0.02    15.11   0.931
  B35.                      58.39       0.00       0.00       3.66      51.07       3.65      54.36        0.02    15.11   0.931
  B37                       58.39       0.00       0.00       3.66      51.07       3.65      54.36        0.02    15.11   0.931
  B39                       58.39       0.00       0.00       3.66      51.07       3.65      54.73        0.02    15.27   0.937
  B41                       58.39       0.00       0.00       3.66      51.07       3.65      54.36        0.02    15.11   0.931
  B43                       58.39       0.00       0.00       3.66      51.07       3.65      54.36        0.02    15.11   0.931
  B27                       58.39       0.00       0.00       3.69      50.97       3.61      54.22        0.03    29.20   0.929
  B25                       58.39       0.00       0.00       3.69      50.97       3.61      54.22        0.03    29.20   0.929
  B24                       58.39       0.00       0.00       3.69      50.97       3.61      54.58        0.03    29.51   0.935
  B67                       58.39       0.00       0.00       3.69      50.97       3.61      54.22        0.03    29.20   0.929
  B68                       58.39       0.00       0.00       3.69      50.97       3.61      54.22        0.03    29.20   0.929
  B98                       58.39       0.00       0.00       3.68      50.99       3.62      54.25        0.03    29.33   0.929
  B97                       58.39       0.00       0.00       3.71      50.91       3.59      54.14        0.03    28.81   0.927
  B46                       58.39       0.00       0.00       3.67      51.04       3.64      54.32        0.02    20.07   0.930
  B45                       58.39       0.00       0.00       3.70      50.95       3.60      54.19        0.04    33.88   0.928
  B47                       58.39       0.00       0.00       3.71      50.94       3.60      54.18        0.04    34.63   0.928
  B44                       58.39       0.00       0.00       3.67      51.04       3.64      54.32        0.02    20.07   0.930
  B122                      58.39       0.00       0.00       3.65      51.09       3.66      54.39        0.03    29.67   0.931
  B124                      58.39       0.00       0.00       3.63      51.12       3.68      54.43        0.02    15.14   0.932
  B126                      58.39       0.00       0.00       3.63      51.12       3.68      54.43        0.02    15.14   0.932
  B128                      58.39       0.00       0.00       3.63      51.12       3.68      54.43        0.02    15.14   0.932
  B130                      58.39       0.00       0.00       3.63      51.12       3.68      54.43        0.02    15.14   0.932
  B132                      58.39       0.00       0.00       3.62      51.14       3.69      54.46        0.02    15.15   0.933
  B135                      58.39       0.00       0.00       3.62      51.14       3.69      54.46        0.02    15.15   0.933
  B137                      58.39       0.00       0.00       3.62      51.14       3.69      54.46        0.02    15.15   0.933
  BBB118                    58.39       0.00       0.00       3.68      50.99       3.62      54.25        0.03    29.33   0.929
  B48                       58.39       0.00       0.00       3.69      50.97       3.61      54.22        0.03    29.20   0.929
  BB117                     58.39       0.00       0.00       3.68      50.99       3.62      54.25        0.03    29.33   0.929
  B83                       58.39       0.00       0.00       3.66      51.07       3.65      54.36        0.02    15.11   0.931
  B81                       58.39       0.00       0.00       3.66      51.07       3.65      54.36        0.02    15.11   0.931
  B79                       58.39       0.00       0.00       3.66      51.07       3.65      54.36        0.02    15.11   0.931
  B77                       58.39       0.00       0.00       3.66      51.07       3.65      54.36        0.02    15.11   0.931
  B75                       58.39       0.00       0.00       3.66      51.07       3.65      54.36        0.02    15.11   0.931
  B73                       58.39       0.00       0.00       3.66      51.07       3.65      54.36        0.02    15.11   0.931
  B71                       58.39       0.00       0.00       3.66      51.07       3.65      54.36        0.02    15.11   0.931
  B69                       58.39       0.00       0.00       3.66      51.07       3.65      54.36        0.02    15.11   0.931
  B70                       58.39       0.00       0.00       3.66      51.07       3.65      54.36        0.02    15.11   0.931
  B72                       58.39       0.00       0.00       3.66      51.07       3.65      54.36        0.02    15.11   0.931
  B74                       58.39       0.00       0.00       3.66      51.07       3.65      54.36        0.02    15.11   0.931
  B76                       58.39       0.00       0.00       3.66      51.07       3.65      54.36        0.02    15.11   0.931
  B78                       58.39       0.00       0.00       3.66      51.07       3.65      54.36        0.02    15.11   0.931
  B80                       58.39       0.00       0.00       3.66      51.07       3.65      54.36        0.02    15.11   0.931
  B82                       58.39       0.00       0.00       3.66      51.07       3.65      54.36        0.02    15.11   0.931
  B84                       58.39       0.00       0.00       3.66      51.07       3.65      54.36        0.02    15.11   0.931
  B85                       58.39       0.00       0.00       3.65      51.09       3.66      54.38        0.02    15.12   0.931
  B86                       58.39       0.00       0.00       3.65      51.09       3.66      54.38        0.02    15.12   0.931
  B88                       58.39       0.00       0.00       3.65      51.09       3.66      54.38        0.02    15.12   0.931
  B90                       58.39       0.00       0.00       3.65      51.09       3.66      54.38        0.02    15.12   0.931
  B92                       58.39       0.00       0.00       3.65      51.09       3.66      54.38        0.02    15.12   0.931
  B94                       58.39       0.00       0.00       3.65      51.09       3.66      54.38        0.02    15.12   0.931
  B96                       58.39       0.00       0.00       3.65      51.09       3.66      54.38        0.02    15.12   0.931
  B95                       58.39       0.00       0.00       3.65      51.09       3.66      54.38        0.02    15.12   0.931
  B93                       58.39       0.00       0.00       3.65      51.09       3.66      54.38        0.02    15.12   0.931
  B91                       58.39       0.00       0.00       3.65      51.09       3.66      54.38        0.02    15.12   0.931
  B89                       58.39       0.00       0.00       3.65      51.09       3.66      54.38        0.02    15.12   0.931
  B87                       58.39       0.00       0.00       3.65      51.09       3.66      54.38        0.02    15.12   0.931
  B116                      58.39       0.00       0.00       3.65      51.09       3.66      54.38        0.02    15.12   0.931
  B114                      58.39       0.00       0.00       3.65      51.09       3.66      54.38        0.02    15.12   0.931
  B112                      58.39       0.00       0.00       3.65      51.09       3.66      54.38        0.02    15.12   0.931
  B110                      58.39       0.00       0.00       3.65      51.09       3.66      54.38        0.02    15.12   0.931
  B50                       58.39       0.00       0.00       3.66      51.07       3.65      54.36        0.02    15.11   0.931
  B52                       58.39       0.00       0.00       3.66      51.07       3.65      54.36        0.02    15.11   0.931
  B54                       58.39       0.00       0.00       3.66      51.07       3.65      54.36        0.02    15.11   0.931
  B56                       58.39       0.00       0.00       3.66      51.07       3.65      54.36        0.02    15.11   0.931
  B58                       58.39       0.00       0.00       3.66      51.07       3.65      54.36        0.02    15.11   0.931
  B60                       58.39       0.00       0.00       3.66      51.07       3.65      54.36        0.02    15.11   0.931
  B106                      58.39       0.00       0.00       3.65      51.09       3.66      54.38        0.02    15.12   0.931
  B104                      58.39       0.00       0.00       3.65      51.09       3.66      54.38        0.02    15.12   0.931
  B102                      58.39       0.00       0.00       3.65      51.09       3.66      54.38        0.02    15.12   0.931
  B100                      58.39       0.00       0.00       3.68      50.99       3.62      54.25        0.03    29.33   0.929
  B66                       58.39       0.00       0.00       3.69      50.97       3.61      54.22        0.03    29.20   0.929
  B62                       58.39       0.00       0.00       3.66      51.07       3.65      54.36        0.02    15.11   0.931
  B64                       58.39       0.00       0.00       3.66      51.07       3.65      54.36        0.02    15.11   0.931
  B65                       58.39       0.00       0.00       3.69      50.97       3.61      54.22        0.03    29.20   0.929
  B63                       58.39       0.00       0.00       3.66      51.07       3.65      54.36        0.02    15.11   0.931
  B61                       58.39       0.00       0.00       3.66      51.07       3.65      54.36        0.02    15.11   0.931
  B59                       58.39       0.00       0.00       3.66      51.07       3.65      54.36        0.02    15.11   0.931
  B57                       58.39       0.00       0.00       3.66      51.07       3.65      54.36        0.02    15.11   0.931
  B55                       58.39       0.00       0.00       3.66      51.07       3.65      54.36        0.02    15.11   0.931
  B53                       58.39       0.00       0.00       3.66      51.07       3.65      54.36        0.02    15.11   0.931
  B51                       58.39       0.00       0.00       3.66      51.07       3.65      54.36        0.02    15.11   0.931
  B49                       58.39       0.00       0.00       3.66      51.07       3.65      54.36        0.02    15.11   0.931
  B138                      58.39       0.00       0.00       3.64      51.11       3.67      54.41        0.04    33.35   0.932
  B188                      58.39       0.00       0.00       3.65      51.10       3.66      54.76        0.04    32.88   0.938
  B189                      58.39       0.00       0.00       3.63      51.13       3.69      54.82        0.02    15.32   0.939
  B190                      58.39       0.00       0.00       3.63      51.13       3.69      54.82        0.02    15.32   0.939
  B191                      58.39       0.00       0.00       3.63      51.13       3.69      54.82        0.02    15.32   0.939
  B192                      58.39       0.00       0.00       3.63      51.13       3.69      54.82        0.02    15.32   0.939
  B193                      58.39       0.00       0.00       3.63      51.13       3.69      54.82        0.02    15.32   0.939
  B194                      58.39       0.00       0.00       3.64      51.10       3.66      54.76        0.03    30.02   0.938
  B195                      58.39       0.00       0.00       3.69      50.97       3.61      54.59        0.03    29.53   0.935
  B196                      58.39       0.00       0.00       3.65      51.07       3.65      54.73        0.02    15.28   0.937
  B197                      58.39       0.00       0.00       3.65      51.07       3.65      54.73        0.02    15.28   0.937
  B198                      58.39       0.00       0.00       3.65      51.07       3.65      54.73        0.02    15.28   0.937
  B199                      58.39       0.00       0.00       3.65      51.07       3.65      54.73        0.02    15.28   0.937
  B204                      58.39       0.00       0.00       3.69      50.97       3.61      54.59        0.03    29.53   0.935
  B203                      58.39       0.00       0.00       3.65      51.07       3.65      54.73        0.02    15.28   0.937
  B202                      58.39       0.00       0.00       3.65      51.07       3.65      54.73        0.02    15.28   0.937
  B200                      58.39       0.00       0.00       3.65      51.07       3.65      54.73        0.02    15.28   0.937
  B201                      58.39       0.00       0.00       3.65      51.07       3.65      54.73        0.02    15.28   0.937
  B176                      58.39       0.00       0.00       3.65      51.10       3.66      54.39        0.04    32.66   0.932
  B177                      58.39       0.00       0.00       3.63      51.13       3.69      54.45        0.02    15.15   0.933
  B178                      58.39       0.00       0.00       3.63      51.13       3.69      54.82        0.02    15.32   0.939
  B179                      58.39       0.00       0.00       3.63      51.13       3.69      54.82        0.02    15.32   0.939
  B180                      58.39       0.00       0.00       3.63      51.13       3.69      54.82        0.02    15.32   0.939
  B181                      58.39       0.00       0.00       3.63      51.13       3.69      54.82        0.02    15.32   0.939
  B182                      58.39       0.00       0.00       3.63      51.13       3.69      54.82        0.02    15.32   0.939
  B183                      58.39       0.00       0.00       3.65      51.07       3.65      54.73        0.02    15.28   0.937
  B184                      58.39       0.00       0.00       3.65      51.07       3.65      54.73        0.02    15.28   0.937
  B185                      58.39       0.00       0.00       3.65      51.07       3.65      54.73        0.02    15.28   0.937
  B186                      58.39       0.00       0.00       3.65      51.07       3.65      54.73        0.02    15.28   0.937
  B187                      58.39       0.00       0.00       3.69      50.97       3.61      54.23        0.03    29.21   0.929
  B165                      58.39       0.00       0.00       3.66      51.06       3.65      54.34        0.03    29.60   0.931
  BB166                     58.39       0.00       0.00       3.64      51.12       3.67      54.79        0.02    15.31   0.938
  BB167                     58.39       0.00       0.00       3.64      51.12       3.67      54.79        0.02    15.31   0.938
  B168                      58.39       0.00       0.00       3.62      51.14       3.69      54.83        0.02    15.32   0.939
  B169                      58.39       0.00       0.00       3.62      51.14       3.69      54.46        0.02    15.15   0.933
  B170                      58.39       0.00       0.00       3.62      51.14       3.69      54.46        0.02    15.15   0.933
  B171                      58.39       0.00       0.00       3.62      51.14       3.69      54.46        0.02    15.15   0.933
  B172                      58.39       0.00       0.00       3.62      51.14       3.69      54.46        0.02    15.15   0.933
  B173                      58.39       0.00       0.00       3.62      51.14       3.69      54.46        0.02    15.15   0.933
  B174                      58.39       0.00       0.00       3.62      51.14       3.69      54.46        0.02    15.15   0.933
  B175                      58.39       0.00       0.00       3.64      51.12       3.67      54.43        0.03    30.53   0.932
  B150                      58.39       0.00       0.00       3.64      51.12       3.67      54.80        0.03    30.92   0.938
  B151                      58.39       0.00       0.00       3.62      51.14       3.69      54.83        0.02    17.90   0.939
  B152                      58.39       0.00       0.00       3.62      51.14       3.69      54.83        0.02    17.90   0.939
  B153                      58.39       0.00       0.00       3.63      51.14       3.69      54.82        0.02    16.58   0.939
  B154                      58.39       0.00       0.00       3.63      51.14       3.69      54.82        0.02    17.31   0.939
  B155                      58.39       0.00       0.00       3.63      51.13       3.68      54.82        0.02    18.04   0.939
  B157                      58.39       0.00       0.00       3.62      51.14       3.69      54.83        0.02    15.71   0.939
  B158                      58.39       0.00       0.00       3.62      51.14       3.69      54.46        0.02    15.77   0.933
  B159                      58.39       0.00       0.00       3.64      51.11       3.67      54.42        0.02    16.82   0.932
  B160                      58.39       0.00       0.00       3.62      51.14       3.69      54.46        0.02    15.15   0.933
  B161                      58.39       0.00       0.00       3.64      51.10       3.67      54.40        0.02    19.60   0.932
  B162                      58.39       0.00       0.00       3.64      51.12       3.67      54.42        0.02    15.14   0.932
  B163                      58.39       0.00       0.00       3.67      51.05       3.64      54.32        0.04    34.38   0.930
  B164                      58.39       0.00       0.00       3.68      51.01       3.63      54.28        0.05    43.21   0.930
  B210                      58.39       0.00       0.00       4.40      50.80      27.93      53.33        0.51   416.91   0.913
  B205                      58.39       0.00       0.00       3.69      50.98       3.61      54.59        0.04    30.76   0.935
  B206                      58.39       0.00       0.00       3.66      51.07       3.65      54.72        0.02    16.72   0.937
  B207                      58.39       0.00       0.00       3.66      51.06       3.65      54.70        0.02    18.15   0.937
  B208                      58.39       0.00       0.00       3.67      51.04       3.64      54.68        0.02    20.11   0.937
  B209                      58.39       0.00       0.00       3.67      51.03       3.63      54.66        0.03    22.66   0.936
  B211                      58.39       0.00       0.00       3.70      50.95       3.60      54.55        0.04    32.85   0.934
  B212                      58.39       0.00       0.00       3.64      51.11       3.67      54.78        0.02    15.94   0.938
  B213                      58.39       0.00       0.00       3.65      51.10       3.66      54.76        0.02    18.02   0.938
  B214                      58.39       0.00       0.00       3.67      51.04       3.64      54.67        0.04    32.21   0.936
  B215                      58.39       0.00       0.00       3.65      51.09       3.66      54.76        0.03    25.45   0.938
  B216                      58.39       0.00       0.00       3.66      51.06       3.65      54.70        0.04    36.17   0.937
  B217                      58.39       0.00       0.00       3.64      51.10       3.66      54.76        0.02    15.30   0.938
  B218                      58.39       0.00       0.00       3.64      51.10       3.66      54.76        0.02    15.30   0.938
  B219                      58.39       0.00       0.00       3.64      51.10       3.66      54.76        0.02    15.30   0.938
  B220                      58.39       0.00       0.00       3.65      51.08       3.66      54.74        0.02    18.97   0.937
  B221                      58.39       0.00       0.00       3.66      51.07       3.65      54.71        0.05    42.34   0.937
  B224                      58.39       0.00       0.00       3.63      51.13       3.68      54.82        0.02    15.32   0.939
  B223                      58.39       0.00       0.00       3.63      51.13       3.68      54.82        0.02    15.32   0.939
  B222                      58.39       0.00       0.00       3.66      51.07       3.65      54.72        0.03    25.69   0.937
  
  
  ******************
  Node Depth Summary
  ******************
  
  ---------------------------------------------------------------------------------
                                 Average  Maximum  Maximum  Time of Max    Reported
                                   Depth    Depth      HGL   Occurrence   Max Depth
  Node                 Type       Meters   Meters   Meters  days hr:min      Meters
  ---------------------------------------------------------------------------------
  P1                   JUNCTION     0.14     1.48  1048.67     0  00:49        1.35
  P2                   JUNCTION     0.18     1.64  1048.66     0  00:50        1.52
  P3                   JUNCTION     0.18     1.90  1048.58     0  00:50        1.76
  P4                   JUNCTION     0.25     2.06  1048.58     0  00:50        1.92
  P5                   JUNCTION     0.21     2.06  1048.24     0  00:50        1.95
  P6                   JUNCTION     0.29     2.22  1048.24     0  00:50        2.11
  P7                   JUNCTION     0.29     2.09  1047.88     0  00:50        1.98
  P8                   JUNCTION     0.16     1.37  1046.91     0  00:49        1.32
  P9                   JUNCTION     0.26     1.53  1046.91     0  00:49        1.48
  P10                  JUNCTION     0.05     0.30  1045.24     0  00:49        0.28
  P11                  JUNCTION     0.15     0.46  1045.23     0  00:49        0.44
  P12                  JUNCTION     0.07     0.88  1045.39     0  00:48        0.52
  P13                  JUNCTION     0.17     0.92  1045.26     0  00:48        0.68
  P17                  JUNCTION     0.07     1.00  1047.16     0  00:46        0.90
  P18                  JUNCTION     0.10     1.06  1047.05     0  00:49        1.06
  P19                  JUNCTION     0.06     0.89  1046.84     0  00:46        0.85
  P20                  JUNCTION     0.14     1.32  1046.81     0  00:49        1.31
  P23                  JUNCTION     0.05     0.81  1046.47     0  00:49        0.80
  P24                  JUNCTION     0.16     1.21  1046.47     0  00:49        1.20
  P25                  JUNCTION     0.04     0.24  1044.96     0  00:48        0.21
  P26                  JUNCTION     0.12     0.38  1044.95     0  00:48        0.38
  P27                  JUNCTION     0.10     0.39  1044.60     0  00:49        0.39
  P28                  JUNCTION     0.13     0.43  1044.60     0  00:49        0.43
  P29                  JUNCTION     0.04     0.21  1044.23     0  00:49        0.21
  P30                  JUNCTION     0.12     0.39  1044.24     0  00:49        0.39
  P31                  JUNCTION     0.44     0.56  1043.95     0  00:48        0.55
  P32                  JUNCTION     0.17     0.49  1043.71     0  00:49        0.49
  P33                  JUNCTION     0.04     0.26  1042.69     0  00:49        0.18
  P34                  JUNCTION     0.13     0.37  1042.63     0  00:49        0.37
  P35                  JUNCTION     0.03     0.20  1040.88     0  00:49        0.11
  P36                  JUNCTION     0.12     0.32  1040.84     0  00:49        0.32
  P37                  JUNCTION     0.04     0.17  1037.61     0  00:50        0.12
  P38                  JUNCTION     0.12     0.34  1037.62     0  00:49        0.34
  P39                  JUNCTION     0.06     1.00  1049.17     0  00:47        0.72
  P40                  JUNCTION     0.09     1.00  1049.00     0  00:47        0.89
  P41                  JUNCTION     0.12     1.43  1048.93     0  00:49        1.31
  P42                  JUNCTION     0.25     2.00  1048.92     0  00:49        1.87
  P43                  JUNCTION     0.15     1.68  1048.59     0  00:50        1.50
  P44                  JUNCTION     0.22     1.84  1048.59     0  00:50        1.67
  P45                  JUNCTION     0.15     1.65  1047.94     0  00:50        1.54
  P46                  JUNCTION     0.22     1.82  1047.94     0  00:50        1.70
  P47                  JUNCTION     0.14     1.45  1046.79     0  00:49        1.42
  P48                  JUNCTION     0.21     1.62  1046.78     0  00:49        1.59
  P49                  JUNCTION     0.11     1.32  1045.83     0  00:45        1.20
  P50                  JUNCTION     0.20     1.39  1045.73     0  00:49        1.37
  P51                  JUNCTION     0.04     0.15  1042.86     0  00:50        0.13
  P52                  JUNCTION     0.11     0.32  1042.86     0  00:49        0.32
  P53                  JUNCTION     0.05     0.16  1038.73     0  00:46        0.16
  P54                  JUNCTION     0.11     0.31  1038.71     0  00:49        0.31
  P55                  JUNCTION     0.15     0.45  1037.71     0  00:49        0.45
  P57                  JUNCTION     0.13     0.37  1037.23     0  00:49        0.37
  P58                  JUNCTION     0.21     0.74  1036.40     0  00:49        0.72
  P22                  JUNCTION     0.06     0.93  1046.46     0  00:49        0.93
  P21                  JUNCTION     0.05     0.77  1046.47     0  00:49        0.76
  P16                  JUNCTION     0.09     0.24  1044.27     0  00:49        0.24
  P14                  JUNCTION     0.21     0.99  1045.14     0  00:48        0.70
  P84                  JUNCTION     0.01     0.04  1044.32     0  00:48        0.04
  P85                  JUNCTION     0.02     0.07  1044.32     0  00:48        0.07
  P86                  JUNCTION     0.04     0.11  1040.62     0  00:49        0.11
  P87                  JUNCTION     0.07     0.23  1037.29     0  00:49        0.23
  P88                  JUNCTION     0.07     0.20  1036.85     0  00:46        0.19
  P89                  JUNCTION     0.22     0.77  1036.83     0  00:49        0.77
  P59                  JUNCTION     0.03     0.09  1047.77     0  00:49        0.09
  P61                  JUNCTION     0.08     0.34  1046.92     0  00:49        0.32
  P62                  JUNCTION     0.10     0.84  1047.06     0  00:48        0.58
  P63                  JUNCTION     0.11     0.92  1046.93     0  00:47        0.59
  P64                  JUNCTION     0.15     0.54  1046.02     0  00:49        0.54
  P65                  JUNCTION     0.18     0.79  1046.30     0  00:48        0.79
  P66                  JUNCTION     0.14     0.45  1045.77     0  00:49        0.45
  P67                  JUNCTION     0.11     0.34  1044.72     0  00:49        0.34
  P68                  JUNCTION     0.04     0.13  1044.71     0  00:49        0.13
  P69                  JUNCTION     0.11     0.33  1042.07     0  00:49        0.33
  P70                  JUNCTION     0.04     0.11  1042.05     0  00:49        0.11
  P71                  JUNCTION     0.12     0.36  1038.63     0  00:49        0.36
  P72                  JUNCTION     0.04     0.13  1038.60     0  00:49        0.13
  P73                  JUNCTION     0.13     0.46  1037.67     0  00:49        0.46
  P74                  JUNCTION     0.18     0.59  1037.39     0  00:49        0.59
  P75                  JUNCTION     0.18     0.62  1037.19     0  00:49        0.61
  P76                  JUNCTION     0.19     0.71  1036.93     0  00:49        0.69
  P77                  JUNCTION     0.06     0.55  1036.97     0  00:49        0.55
  P78                  JUNCTION     0.08     0.26  1039.05     0  00:49        0.26
  P79                  JUNCTION     0.06     0.18  1038.76     0  00:49        0.18
  P80                  JUNCTION     0.05     0.16  1043.36     0  00:49        0.16
  P81                  JUNCTION     0.06     0.17  1043.39     0  00:49        0.17
  P82                  JUNCTION     0.04     0.13  1046.30     0  00:48        0.13
  P83                  JUNCTION     0.06     0.19  1046.39     0  00:48        0.19
  P60                  JUNCTION     0.06     0.19  1047.34     0  00:49        0.19
  P62A                 JUNCTION     0.08     0.64  1046.89     0  00:48        0.55
  P61A                 JUNCTION     0.06     0.33  1046.93     0  00:49        0.31
  P90                  JUNCTION     0.04     0.11  1047.24     0  00:49        0.11
  P91                  JUNCTION     0.04     0.11  1047.05     0  00:49        0.11
  P92                  JUNCTION     0.04     0.12  1046.22     0  00:49        0.12
  P93                  JUNCTION     0.07     0.22  1046.12     0  00:49        0.22
  P94                  JUNCTION     0.03     0.09  1045.83     0  00:49        0.09
  P95                  JUNCTION     0.08     0.24  1045.78     0  00:49        0.24
  P96                  JUNCTION     0.04     0.11  1045.49     0  00:46        0.11
  P97                  JUNCTION     0.08     0.24  1045.42     0  00:49        0.24
  E1                   OUTFALL      0.21     0.80  1035.80     0  00:48        0.80
  E32                  OUTFALL      0.22     0.74  1036.70     0  00:49        0.73
  E33                  OUTFALL      0.08     0.24  1044.62     0  00:49        0.24
  
  
  *******************
  Node Inflow Summary
  *******************
  
  -------------------------------------------------------------------------------------------------
                                  Maximum  Maximum                  Lateral       Total        Flow
                                  Lateral    Total  Time of Max      Inflow      Inflow     Balance
                                   Inflow   Inflow   Occurrence      Volume      Volume       Error
  Node                 Type           LPS      LPS  days hr:min    10^6 ltr    10^6 ltr     Percent
  -------------------------------------------------------------------------------------------------
  P1                   JUNCTION     60.59   201.84     0  00:45      0.0686      0.0688      -0.083
  P2                   JUNCTION     60.76   197.15     0  00:46      0.0687       0.138      -0.017
  P3                   JUNCTION     60.42   188.36     0  00:45      0.0685      0.0687      -0.047
  P4                   JUNCTION     60.42   272.17     0  00:46      0.0685       0.275       0.117
  P5                   JUNCTION     74.83   147.05     0  00:45      0.0851      0.0852      -0.037
  P6                   JUNCTION     60.59   322.42     0  00:45      0.0686       0.428       0.038
  P7                   JUNCTION     58.39   326.92     0  00:49       0.067       0.495       0.010
  P8                   JUNCTION     74.51    74.51     0  00:49      0.0849      0.0849      -0.016
  P9                   JUNCTION     45.32   423.93     0  00:49      0.0514       0.631       0.014
  P10                  JUNCTION     45.49    45.49     0  00:49      0.0515      0.0515       0.013
  P11                  JUNCTION     45.32   495.09     0  00:49      0.0514       0.734       0.014
  P12                  JUNCTION     64.09    64.09     0  00:49      0.0733      0.0733       0.013
  P13                  JUNCTION     55.25   605.08     0  00:48      0.0627        0.87       0.009
  P17                  JUNCTION     75.53    75.53     0  00:49      0.0856      0.0856       0.003
  P18                  JUNCTION     75.53   160.90     0  00:46      0.0856       0.171       0.023
  P19                  JUNCTION     74.51    74.51     0  00:49      0.0849      0.0849       0.002
  P20                  JUNCTION     45.32   283.28     0  00:46      0.0514       0.307       0.016
  P23                  JUNCTION     29.20    32.96     0  00:46      0.0335      0.0335       0.023
  P24                  JUNCTION     29.20   345.47     0  00:49      0.0335       0.408       0.007
  P25                  JUNCTION     45.32    45.32     0  00:49      0.0514      0.0514       0.019
  P26                  JUNCTION     45.32   442.02     0  00:48      0.0514       0.511       0.013
  P27                  JUNCTION     45.32    45.32     0  00:49      0.0514      0.0514       0.010
  P28                  JUNCTION     45.32   526.24     0  00:49      0.0514       0.613       0.020
  P29                  JUNCTION     59.41    59.41     0  00:49      0.0678      0.0678       0.010
  P30                  JUNCTION     64.84   650.46     0  00:49      0.0742       0.755       0.014
  P31                  JUNCTION     29.69    29.69     0  00:49      0.0336      0.0336       1.396
  P32                  JUNCTION      0.00  1268.26     0  00:49           0        1.66       0.008
  P33                  JUNCTION     45.44    45.44     0  00:49      0.0515      0.0515       0.060
  P34                  JUNCTION      0.00  1338.55     0  00:49           0        1.71       0.008
  P35                  JUNCTION     30.30    30.30     0  00:49      0.0343      0.0343       0.060
  P36                  JUNCTION      0.00  1366.51     0  00:49           0        1.74       0.008
  P37                  JUNCTION     62.11    62.11     0  00:49      0.0703      0.0703       0.006
  P38                  JUNCTION      0.00  1413.63     0  00:49           0        1.81      -0.001
  P39                  JUNCTION     30.24    44.02     0  00:47      0.0343      0.0343      -0.085
  P40                  JUNCTION     60.48   103.97     0  00:47      0.0685       0.103      -0.027
  P41                  JUNCTION     74.17    74.17     0  00:49      0.0848      0.0848      -0.045
  P42                  JUNCTION     74.69   250.80     0  00:47      0.0849       0.273       0.109
  P43                  JUNCTION     44.45    46.15     0  00:45      0.0507      0.0507      -0.011
  P44                  JUNCTION     44.45   297.57     0  00:45      0.0507       0.374       0.024
  P45                  JUNCTION     60.48    71.78     0  00:45      0.0685      0.0685       0.021
  P46                  JUNCTION     60.48   391.09     0  00:46      0.0685       0.511       0.011
  P47                  JUNCTION     74.69    74.69     0  00:49      0.0849      0.0849      -0.029
  P48                  JUNCTION     74.69   462.51     0  00:46      0.0849        0.68       0.018
  P49                  JUNCTION     29.67    42.32     0  00:45      0.0336      0.0337      -0.011
  P50                  JUNCTION     29.67   501.83     0  00:49      0.0336       0.748      -0.001
  P51                  JUNCTION     45.43    45.43     0  00:49      0.0514      0.0514       0.022
  P52                  JUNCTION     45.43   584.78     0  00:49      0.0514        0.85       0.011
  P53                  JUNCTION     93.94    93.94     0  00:49       0.106       0.106       0.003
  P54                  JUNCTION     60.59   738.58     0  00:49      0.0686        1.03       0.007
  P55                  JUNCTION     31.43   769.72     0  00:49      0.0356        1.06       0.006
  P57                  JUNCTION      0.00   769.32     0  00:49           0        1.06       0.047
  P58                  JUNCTION      0.00  2166.32     0  00:49           0        2.87       0.005
  P22                  JUNCTION      0.00    44.30     0  00:45           0      0.0339      -0.012
  P21                  JUNCTION     29.20    47.60     0  00:46      0.0335      0.0336       0.005
  P16                  JUNCTION      0.00   595.15     0  00:49           0       0.869       0.011
  P14                  JUNCTION      0.00   594.48     0  00:49           0        0.87       0.019
  P84                  JUNCTION      0.00     0.41     0  00:44           0    5.05e-05       0.248
  P85                  JUNCTION     34.38    34.42     0  00:48      0.0391      0.0391       0.018
  P86                  JUNCTION     70.17   104.57     0  00:49      0.0793       0.118      -0.000
  P87                  JUNCTION     34.48   139.00     0  00:49      0.0389       0.157       0.015
  P88                  JUNCTION      0.00   138.86     0  00:49           0       0.157       0.149
  P89                  JUNCTION      0.00  1601.30     0  00:49           0         1.9      -0.000
  P59                  JUNCTION     66.17    66.17     0  00:49      0.0747      0.0747       0.004
  P61                  JUNCTION     42.77   142.36     0  00:48      0.0484       0.161       0.021
  P62                  JUNCTION     65.64   203.64     0  00:48      0.0745       0.236       0.018
  P63                  JUNCTION     29.53   226.21     0  00:49      0.0337       0.269       0.011
  P64                  JUNCTION     45.83   688.88     0  00:49      0.0517       0.829      -0.010
  P65                  JUNCTION    416.91   416.91     0  00:49       0.509       0.509       0.045
  P66                  JUNCTION     30.55   729.91     0  00:49      0.0345       0.864       0.015
  P67                  JUNCTION     75.36   863.00     0  00:49      0.0854        1.03       0.017
  P68                  JUNCTION     75.05    75.05     0  00:49      0.0852      0.0852       0.005
  P69                  JUNCTION     45.34   965.36     0  00:49      0.0511        1.15       0.015
  P70                  JUNCTION     61.24    61.24     0  00:49       0.069       0.069       0.001
  P71                  JUNCTION     61.28  1098.99     0  00:49      0.0691        1.31       0.007
  P72                  JUNCTION     78.44    78.44     0  00:49      0.0887      0.0887       0.002
  P73                  JUNCTION     32.88  1129.61     0  00:49      0.0371        1.35       0.002
  P74                  JUNCTION      0.00  1130.56     0  00:49           0        1.35       0.009
  P75                  JUNCTION      0.00  1132.07     0  00:49           0        1.35       0.015
  P76                  JUNCTION      0.00  1193.04     0  00:49           0        1.39       0.010
  P77                  JUNCTION     30.53    87.24     0  00:46      0.0346      0.0384      -0.231
  P78                  JUNCTION     45.45   272.93     0  00:49      0.0515       0.309       0.007
  P79                  JUNCTION     48.82   321.53     0  00:49       0.055       0.364      -0.003
  P80                  JUNCTION     60.77   228.62     0  00:49      0.0687       0.258       0.005
  P81                  JUNCTION     48.24    48.24     0  00:49      0.0545      0.0545       0.006
  P82                  JUNCTION     60.23   126.90     0  00:48      0.0681       0.134      -0.008
  P83                  JUNCTION     58.35    58.35     0  00:49      0.0664      0.0664       0.048
  P60                  JUNCTION     32.85    99.02     0  00:49      0.0377       0.112       0.025
  P62A                 JUNCTION      0.00    19.36     0  00:48           0    0.000615      -0.712
  P61A                 JUNCTION      0.00     4.37     0  00:48           0    0.000448       0.140
  P90                  JUNCTION     61.62    61.62     0  00:49      0.0696      0.0696       0.008
  P91                  JUNCTION      0.00    61.61     0  00:49           0      0.0695       0.002
  P92                  JUNCTION     64.88    64.88     0  00:49      0.0732      0.0732       0.004
  P93                  JUNCTION      0.00   126.45     0  00:49           0       0.143       0.018
  P94                  JUNCTION     42.34    42.34     0  00:49      0.0478      0.0478       0.006
  P95                  JUNCTION      0.00   168.65     0  00:49           0        0.19       0.021
  P96                  JUNCTION     56.33    56.33     0  00:49      0.0635      0.0635       0.004
  P97                  JUNCTION      0.00   224.83     0  00:49           0       0.254       0.011
  E1                   OUTFALL       0.00  2166.96     0  00:49           0        2.87       0.000
  E32                  OUTFALL       0.00  1600.21     0  00:49           0         1.9       0.000
  E33                  OUTFALL       0.00   224.74     0  00:49           0       0.254       0.000
  
  
  **********************
  Node Surcharge Summary
  **********************
  
  Surcharging occurs when water rises above the top of the highest conduit.
  ---------------------------------------------------------------------
                                               Max. Height   Min. Depth
                                   Hours       Above Crown    Below Rim
  Node                 Type      Surcharged         Meters       Meters
  ---------------------------------------------------------------------
  P1                   JUNCTION        0.17          1.076        0.000
  P2                   JUNCTION        0.18          1.242        0.000
  P3                   JUNCTION        0.20          1.497        0.000
  P4                   JUNCTION        0.20          1.665        0.000
  P5                   JUNCTION        0.21          1.656        0.000
  P6                   JUNCTION        0.23          1.824        0.000
  P7                   JUNCTION        0.23          1.692        0.000
  P8                   JUNCTION        0.21          0.966        0.000
  P9                   JUNCTION        0.25          1.135        0.000
  P12                  JUNCTION        0.04          0.479        0.351
  P13                  JUNCTION        0.03          0.320        0.280
  P17                  JUNCTION        0.06          0.604        0.000
  P18                  JUNCTION        0.06          0.662        0.000
  P19                  JUNCTION        0.06          0.490        0.110
  P20                  JUNCTION        0.10          0.919        0.000
  P23                  JUNCTION        0.06          0.408        0.192
  P24                  JUNCTION        0.14          0.805        0.000
  P31                  JUNCTION        1.71          0.157        1.243
  P39                  JUNCTION        0.09          0.600        0.000
  P40                  JUNCTION        0.12          0.602        0.000
  P41                  JUNCTION        0.17          1.030        0.000
  P42                  JUNCTION        0.18          1.599        0.000
  P43                  JUNCTION        0.17          1.277        0.000
  P44                  JUNCTION        0.17          1.441        0.000
  P45                  JUNCTION        0.16          1.253        0.000
  P46                  JUNCTION        0.17          1.420        0.000
  P47                  JUNCTION        0.16          1.051        0.000
  P48                  JUNCTION        0.17          1.220        0.000
  P49                  JUNCTION        0.17          0.921        0.039
  P50                  JUNCTION        0.18          0.992        0.000
  P22                  JUNCTION        0.08          0.533        0.000
  P21                  JUNCTION        0.06          0.366        0.109
  P14                  JUNCTION        0.05          0.387        0.659
  P62                  JUNCTION        0.04          0.436        0.164
  P63                  JUNCTION        0.05          0.517        0.283
  P65                  JUNCTION        0.18          0.393        0.377
  P62A                 JUNCTION        0.04          0.240        0.000
  
  
  *********************
  Node Flooding Summary
  *********************
  
  Flooding refers to all water that overflows a node, whether it ponds or not.
  --------------------------------------------------------------------------
                                                             Total   Maximum
                                 Maximum   Time of Max       Flood    Ponded
                        Hours       Rate    Occurrence      Volume     Depth
  Node                 Flooded       LPS   days hr:min    10^6 ltr    Meters
  --------------------------------------------------------------------------
  P1                      0.12    131.74      0  00:46       0.001     0.476
  P2                      0.16    129.34      0  00:46       0.004     0.642
  P3                      0.17    174.87      0  00:45       0.002     0.917
  P4                      0.19    146.64      0  00:45       0.011     1.085
  P5                      0.19     71.80      0  00:45       0.002     1.056
  P6                      0.20    150.80      0  00:45       0.009     1.224
  P7                      0.21     72.78      0  00:45       0.007     1.092
  P8                      0.15      8.14      0  00:47       0.001     0.366
  P9                      0.19     39.46      0  00:46       0.006     0.535
  P17                     0.01     26.98      0  00:46       0.000     0.004
  P18                     0.03     26.47      0  00:46       0.000     0.062
  P20                     0.06     54.35      0  00:46       0.002     0.319
  P24                     0.01      0.36      0  00:49       0.000     0.000
  P40                     0.01     14.02      0  00:47       0.000     0.002
  P41                     0.09     14.04      0  00:48       0.001     0.355
  P42                     0.17     88.24      0  00:47       0.009     0.924
  P43                     0.14     21.95      0  00:46       0.001     0.677
  P44                     0.17     46.70      0  00:48       0.007     0.841
  P45                     0.15     63.17      0  00:45       0.001     0.653
  P46                     0.16     96.26      0  00:46       0.007     0.820
  P47                     0.13     41.95      0  00:45       0.001     0.451
  P48                     0.15     73.05      0  00:46       0.004     0.620
  P50                     0.03      7.76      0  00:49       0.000     0.032
  P22                     0.03      3.86      0  00:48       0.000     0.058
  P62A                    0.01     10.91      0  00:48       0.000     0.000
  
  
  ***********************
  Outfall Loading Summary
  ***********************
  
  -----------------------------------------------------------
                         Flow       Avg       Max       Total
                         Freq      Flow      Flow      Volume
  Outfall Node           Pcnt       LPS       LPS    10^6 ltr
  -----------------------------------------------------------
  E1                    95.76    438.68   2166.96       2.873
  E32                   95.95    290.19   1600.21       1.904
  E33                   95.75     38.78    224.74       0.254
  -----------------------------------------------------------
  System                95.82    767.64   3987.13       5.031
  
  
  
  ********************
  Link Flow Summary
  ********************
  
  -----------------------------------------------------------------------------
                                 Maximum  Time of Max   Maximum    Max/    Max/
                                  |Flow|   Occurrence   |Veloc|    Full    Full
  Link                 Type          LPS  days hr:min     m/sec    Flow   Depth
  -----------------------------------------------------------------------------
  G1                   CONDUIT    145.81     0  00:45      1.23    0.45    1.00
  G2                   CONDUIT    158.62     0  00:46      1.26    0.76    1.00
  G3                   CONDUIT    136.42     0  00:45      1.13    0.46    1.00
  G4                   CONDUIT    173.84     0  00:51      1.44    0.83    1.00
  G5                   CONDUIT    125.15     0  00:45      1.00    0.38    1.00
  G6                   CONDUIT    271.67     0  00:49      2.16    1.26    1.00
  G7                   CONDUIT    317.56     0  00:50      2.53    1.53    1.00
  G8                   CONDUIT     80.22     0  00:45      0.80    0.24    1.00
  G38                  CONDUIT     43.79     0  00:47      0.99    0.13    1.00
  G39                  CONDUIT    103.92     0  00:47      0.94    0.34    1.00
  G40                  CONDUIT    140.05     0  00:56      1.26    0.23    1.00
  G41                  CONDUIT    235.48     0  00:56      1.87    1.83    1.00
  G42                  CONDUIT     60.48     0  00:55      0.64    0.19    1.00
  G43                  CONDUIT    295.03     0  00:55      2.35    1.24    1.00
  G44                  CONDUIT     99.48     0  00:46      0.82    0.31    1.00
  G45                  CONDUIT    354.79     0  00:55      2.82    1.20    1.00
  G46                  CONDUIT    109.92     0  00:46      0.92    0.33    1.00
  G47                  CONDUIT    449.51     0  00:50      3.58    1.14    1.00
  G48                  CONDUIT     37.07     0  00:45      0.39    0.11    1.00
  G49                  CONDUIT    495.05     0  00:49      4.20    1.23    0.90
  G50                  CONDUIT     45.34     0  00:47      0.80    0.14    0.57
  G51                  CONDUIT    584.24     0  00:49      5.55    0.97    0.79
  G52                  CONDUIT     93.94     0  00:49      1.30    0.29    0.59
  G53                  CONDUIT    738.33     0  00:49      3.95    0.52    0.63
  G54                  CONDUIT    769.32     0  00:49      3.75    0.90    0.68
  G56                  CONDUIT    769.06     0  00:49      3.94    0.70    0.77
  G16                  CONDUIT     87.17     0  00:46      1.20    0.27    1.00
  G17                  CONDUIT    167.78     0  00:46      1.34    0.80    1.00
  G18                  CONDUIT    100.29     0  00:50      0.97    0.19    1.00
  G19                  CONDUIT    265.85     0  00:49      2.12    1.26    1.00
  G20                  CONDUIT     40.23     0  00:46      1.49    0.12    1.00
  G21                  CONDUIT     40.19     0  00:46      0.36    0.12    1.00
  G22                  CONDUIT     40.14     0  00:46      0.41    0.08    1.00
  G23                  CONDUIT    345.42     0  00:49      2.76    1.65    1.00
  G24                  CONDUIT     54.47     0  00:47      0.66    0.18    0.77
  G25                  CONDUIT    436.02     0  00:49      2.16    0.71    0.67
  G26                  CONDUIT     45.28     0  00:48      0.39    0.28    0.98
  G27                  CONDUIT    524.58     0  00:49      2.56    0.86    0.68
  G28                  CONDUIT     62.44     0  00:48      0.78    0.19    0.75
  G9                   CONDUIT    407.94     0  00:49      3.25    1.96    1.00
  G10                  CONDUIT     54.99     0  00:46      0.61    0.17    0.87
  G11                  CONDUIT    492.07     0  00:49      2.10    0.80    0.88
  G12                  CONDUIT     76.71     0  00:45      0.77    0.24    1.00
  G13                  CONDUIT    594.48     0  00:49      2.13    0.93    1.00
  G14                  CONDUIT    595.15     0  00:49      2.84    1.87    0.70
  G29                  CONDUIT    647.88     0  00:49      3.34    0.76    0.65
  G15                  CONDUIT    594.71     0  00:49      3.51    0.34    0.60
  G30                  CONDUIT     29.75     0  00:48      0.39    0.06    0.58
  G31                  CONDUIT   1270.55     0  00:49      4.75    0.67    0.53
  G33                  CONDUIT   1328.03     0  00:49      6.47    0.42    0.43
  G34                  CONDUIT     48.59     0  00:48      0.71    0.15    0.64
  G35                  CONDUIT   1360.51     0  00:49      6.86    0.34    0.42
  G36                  CONDUIT     63.09     0  00:48      1.03    0.19    0.62
  G37                  CONDUIT   1409.55     0  00:49      6.23    0.38    0.53
  G32                  CONDUIT     70.01     0  00:48      0.87    0.22    0.77
  G57                  CONDUIT   2166.96     0  00:49      4.79    1.03    0.96
  G58                  CONDUIT     66.17     0  00:49      1.64    0.12    0.36
  G59                  CONDUIT     98.74     0  00:49      1.64    0.47    0.48
  G61                  CONDUIT    143.63     0  00:49      1.46    0.68    0.92
  G63                  CONDUIT    198.16     0  00:49      1.77    0.97    1.00
  G64                  CONDUIT    226.22     0  00:49      1.80    1.05    1.00
  G66                  CONDUIT    416.87     0  00:49      3.32    3.11    1.00
  G65                  CONDUIT    700.23     0  00:49      2.82    1.11    0.82
  G67                  CONDUIT    717.20     0  00:49      3.67    0.89    0.66
  G68                  CONDUIT     75.03     0  00:49      1.08    0.21    0.58
  G69                  CONDUIT    863.30     0  00:49      5.29    0.61    0.56
  G70                  CONDUIT     61.23     0  00:49      1.07    0.17    0.56
  G71                  CONDUIT    963.73     0  00:49      5.70    0.60    0.58
  G72                  CONDUIT     78.44     0  00:49      1.16    0.22    0.61
  G73                  CONDUIT   1097.78     0  00:49      5.38    0.67    0.68
  G74                  CONDUIT   1130.56     0  00:49      4.31    0.81    0.88
  G75                  CONDUIT   1132.07     0  00:49      2.81    0.86    0.76
  G76                  CONDUIT   1134.03     0  00:49      2.62    0.85    0.83
  G78                  CONDUIT   1169.06     0  00:49      2.46    0.89    0.92
  G77                  CONDUIT    110.22     0  00:46      0.58    0.11    0.96
  G60                  CONDUIT      6.61     0  00:50      0.10    0.07    0.83
  G62                  CONDUIT     19.36     0  00:48      0.15    0.17    1.00
  G79                  CONDUIT     66.68     0  00:48      1.47    0.60    0.40
  G80                  CONDUIT    119.62     0  00:49      2.96    0.22    0.36
  G81                  CONDUIT     48.23     0  00:49      1.06    0.43    0.41
  G82                  CONDUIT    227.49     0  00:49      3.36    0.34    0.53
  G83                  CONDUIT    272.73     0  00:49      3.85    0.77    0.55
  G84                  CONDUIT    321.51     0  00:49      3.32    0.40    0.72
  G85                  CONDUIT      0.41     0  00:44      0.07    0.00    0.13
  G86                  CONDUIT     34.40     0  00:48      1.63    0.06    0.22
  G87                  CONDUIT    104.52     0  00:49      2.05    0.18    0.43
  G88                  CONDUIT    138.86     0  00:49      1.90    0.61    0.57
  G89                  CONDUIT    138.83     0  00:49      1.61    0.22    0.49
  G90                  CONDUIT     61.61     0  00:49      2.13    0.18    0.28
  G91                  CONDUIT     61.58     0  00:49      1.25    0.17    0.41
  G92                  CONDUIT     64.88     0  00:49      1.29    0.18    0.43
  G94                  CONDUIT     42.34     0  00:49      0.89    0.12    0.42
  G93                  CONDUIT    126.35     0  00:49      1.68    0.59    0.58
  G95                  CONDUIT    168.54     0  00:49      2.13    0.68    0.60
  G96                  CONDUIT     56.33     0  00:49      1.20    0.16    0.44
  G152                 CONDUIT   1600.21     0  00:49      3.26    1.21    0.94
  G153                 CONDUIT    224.74     0  00:49      2.85    0.67    0.60
  
  
  ***************************
  Flow Classification Summary
  ***************************
  
  -------------------------------------------------------------------------------------
                      Adjusted    ---------- Fraction of Time in Flow Class ---------- 
                       /Actual         Up    Down  Sub   Sup   Up    Down  Norm  Inlet 
  Conduit               Length    Dry  Dry   Dry   Crit  Crit  Crit  Crit  Ltd   Ctrl  
  -------------------------------------------------------------------------------------
  G1                      1.00   0.04  0.00  0.00  0.29  0.68  0.00  0.00  0.83  0.00
  G2                      1.00   0.04  0.00  0.00  0.93  0.03  0.00  0.00  0.82  0.00
  G3                      1.00   0.04  0.00  0.00  0.94  0.02  0.00  0.00  0.83  0.00
  G4                      1.00   0.04  0.00  0.00  0.28  0.69  0.00  0.00  0.81  0.00
  G5                      1.00   0.04  0.00  0.00  0.94  0.02  0.00  0.00  0.83  0.00
  G6                      1.00   0.04  0.00  0.00  0.14  0.83  0.00  0.00  0.59  0.00
  G7                      1.00   0.04  0.00  0.00  0.18  0.78  0.00  0.00  0.71  0.00
  G8                      1.00   0.04  0.00  0.00  0.93  0.03  0.00  0.00  0.77  0.00
  G38                     1.00   0.04  0.00  0.00  0.35  0.61  0.00  0.00  0.87  0.00
  G39                     1.00   0.04  0.00  0.00  0.94  0.02  0.00  0.00  0.87  0.00
  G40                     1.00   0.04  0.00  0.00  0.94  0.03  0.00  0.00  0.87  0.00
  G41                     1.00   0.04  0.00  0.00  0.96  0.01  0.00  0.00  0.00  0.00
  G42                     1.00   0.04  0.00  0.00  0.94  0.02  0.00  0.00  0.84  0.00
  G43                     1.00   0.04  0.00  0.00  0.12  0.85  0.00  0.00  0.76  0.00
  G44                     1.00   0.04  0.00  0.00  0.93  0.03  0.00  0.00  0.84  0.00
  G45                     1.00   0.04  0.00  0.00  0.10  0.87  0.00  0.00  0.46  0.00
  G46                     1.00   0.04  0.00  0.00  0.93  0.03  0.00  0.00  0.85  0.00
  G47                     1.00   0.04  0.00  0.00  0.09  0.87  0.00  0.00  0.78  0.00
  G48                     1.00   0.04  0.00  0.00  0.95  0.02  0.00  0.00  0.83  0.00
  G49                     1.00   0.04  0.00  0.00  0.00  0.96  0.00  0.00  0.02  0.00
  G50                     1.00   0.04  0.00  0.00  0.93  0.03  0.00  0.00  0.87  0.00
  G51                     1.00   0.04  0.00  0.00  0.00  0.96  0.00  0.00  0.85  0.00
  G52                     1.00   0.04  0.00  0.00  0.90  0.06  0.00  0.00  0.89  0.00
  G53                     1.00   0.04  0.00  0.00  0.00  0.96  0.00  0.00  0.95  0.00
  G54                     1.00   0.04  0.00  0.00  0.00  0.96  0.00  0.00  0.13  0.00
  G56                     1.00   0.04  0.00  0.00  0.00  0.09  0.00  0.87  0.08  0.00
  G16                     1.00   0.04  0.00  0.00  0.23  0.74  0.00  0.00  0.84  0.00
  G17                     1.00   0.04  0.00  0.00  0.43  0.54  0.00  0.00  0.88  0.00
  G18                     1.00   0.04  0.00  0.00  0.94  0.03  0.00  0.00  0.91  0.00
  G19                     1.00   0.04  0.00  0.00  0.23  0.73  0.00  0.00  0.66  0.00
  G20                     1.00   0.04  0.00  0.00  0.08  0.89  0.00  0.00  0.10  0.00
  G21                     1.00   0.04  0.00  0.00  0.96  0.00  0.00  0.00  0.88  0.00
  G22                     1.00   0.04  0.00  0.00  0.94  0.02  0.00  0.00  0.91  0.00
  G23                     1.00   0.04  0.00  0.00  0.00  0.00  0.00  0.96  0.00  0.00
  G24                     1.00   0.04  0.00  0.00  0.94  0.02  0.00  0.00  0.86  0.00
  G25                     1.00   0.04  0.00  0.00  0.01  0.96  0.00  0.00  0.77  0.00
  G26                     1.00   0.04  0.00  0.00  0.96  0.01  0.00  0.00  0.17  0.00
  G27                     1.00   0.04  0.00  0.00  0.01  0.95  0.00  0.00  0.22  0.00
  G28                     1.00   0.04  0.00  0.00  0.94  0.03  0.00  0.00  0.89  0.00
  G9                      1.00   0.04  0.00  0.00  0.00  0.00  0.00  0.96  0.00  0.00
  G10                     1.00   0.04  0.00  0.00  0.94  0.02  0.00  0.00  0.79  0.00
  G11                     1.00   0.04  0.00  0.00  0.06  0.90  0.00  0.00  0.70  0.00
  G12                     1.00   0.04  0.00  0.00  0.94  0.02  0.00  0.00  0.78  0.00
  G13                     1.00   0.04  0.00  0.00  0.25  0.72  0.00  0.00  0.17  0.00
  G14                     1.00   0.04  0.00  0.00  0.02  0.94  0.00  0.00  0.00  0.00
  G29                     1.00   0.04  0.00  0.00  0.00  0.00  0.00  0.96  0.00  0.00
  G15                     1.00   0.04  0.01  0.00  0.02  0.93  0.00  0.00  0.96  0.00
  G30                     1.00   0.04  0.06  0.00  0.00  0.00  0.90  0.00  0.00  0.00
  G31                     1.00   0.04  0.00  0.00  0.02  0.95  0.00  0.00  0.02  0.00
  G33                     1.00   0.04  0.00  0.00  0.00  0.96  0.00  0.00  0.00  0.00
  G34                     1.00   0.04  0.00  0.00  0.92  0.04  0.00  0.00  0.85  0.00
  G35                     1.00   0.04  0.00  0.00  0.00  0.96  0.00  0.00  0.93  0.00
  G36                     1.00   0.04  0.00  0.00  0.91  0.05  0.00  0.00  0.87  0.00
  G37                     1.00   0.04  0.00  0.00  0.00  0.08  0.00  0.88  0.07  0.00
  G32                     1.00   0.04  0.00  0.00  0.92  0.04  0.00  0.00  0.83  0.00
  G57                     1.00   0.04  0.00  0.00  0.00  0.96  0.00  0.00  0.40  0.00
  G58                     1.00   0.04  0.00  0.00  0.11  0.85  0.00  0.00  0.95  0.00
  G59                     1.00   0.04  0.00  0.00  0.00  0.00  0.00  0.96  0.00  0.00
  G61                     1.00   0.04  0.00  0.00  0.20  0.76  0.00  0.00  0.89  0.00
  G63                     1.00   0.04  0.00  0.00  0.05  0.92  0.00  0.00  0.60  0.00
  G64                     1.00   0.04  0.00  0.00  0.80  0.16  0.00  0.00  0.91  0.00
  G66                     1.00   0.04  0.00  0.00  0.37  0.59  0.00  0.00  0.04  0.00
  G65                     1.00   0.04  0.00  0.00  0.01  0.96  0.00  0.00  0.49  0.00
  G67                     1.00   0.04  0.00  0.00  0.01  0.95  0.00  0.00  0.02  0.00
  G68                     1.00   0.04  0.00  0.00  0.90  0.06  0.00  0.00  0.94  0.00
  G69                     1.00   0.04  0.00  0.00  0.00  0.96  0.00  0.00  0.10  0.00
  G70                     1.00   0.04  0.00  0.00  0.91  0.06  0.00  0.00  0.94  0.00
  G71                     1.00   0.04  0.00  0.00  0.00  0.96  0.00  0.00  0.95  0.00
  G72                     1.00   0.04  0.00  0.00  0.90  0.06  0.00  0.00  0.94  0.00
  G73                     1.00   0.04  0.00  0.00  0.00  0.96  0.00  0.00  0.94  0.00
  G74                     1.00   0.04  0.00  0.00  0.00  0.96  0.00  0.00  0.80  0.00
  G75                     1.00   0.04  0.00  0.00  0.00  0.96  0.00  0.00  0.53  0.00
  G76                     1.00   0.04  0.00  0.00  0.03  0.93  0.00  0.00  0.53  0.00
  G78                     1.00   0.04  0.00  0.00  0.10  0.86  0.00  0.00  0.21  0.00
  G77                     1.00   0.04  0.00  0.00  0.94  0.02  0.00  0.00  0.70  0.00
  G60                     1.00   0.04  0.02  0.00  0.95  0.00  0.00  0.00  0.06  0.00
  G62                     1.00   0.04  0.02  0.00  0.94  0.00  0.00  0.00  0.07  0.00
  G79                     1.00   0.04  0.00  0.00  0.18  0.79  0.00  0.00  0.02  0.00
  G80                     1.00   0.04  0.00  0.00  0.00  0.96  0.00  0.00  0.96  0.00
  G81                     1.00   0.04  0.00  0.00  0.95  0.01  0.00  0.00  0.17  0.00
  G82                     1.00   0.04  0.00  0.00  0.00  0.96  0.00  0.00  0.96  0.00
  G83                     1.00   0.04  0.00  0.00  0.00  0.96  0.00  0.00  0.09  0.00
  G84                     1.00   0.04  0.00  0.00  0.52  0.45  0.00  0.00  0.95  0.00
  G85                     1.00   0.04  0.36  0.00  0.61  0.00  0.00  0.00  0.41  0.00
  G86                     1.00   0.04  0.00  0.00  0.01  0.96  0.00  0.00  0.96  0.00
  G87                     1.00   0.04  0.00  0.00  0.00  0.96  0.00  0.00  0.96  0.00
  G88                     1.00   0.04  0.00  0.00  0.00  0.00  0.00  0.96  0.00  0.00
  G89                     1.00   0.04  0.00  0.00  0.05  0.03  0.00  0.88  0.06  0.00
  G90                     1.00   0.04  0.00  0.00  0.00  0.96  0.00  0.00  0.23  0.00
  G91                     1.00   0.04  0.00  0.00  0.17  0.80  0.00  0.00  0.96  0.00
  G92                     1.00   0.04  0.00  0.00  0.17  0.79  0.00  0.00  0.89  0.00
  G94                     1.00   0.04  0.00  0.00  0.93  0.03  0.00  0.00  0.94  0.00
  G93                     1.00   0.04  0.00  0.00  0.06  0.90  0.00  0.00  0.83  0.00
  G95                     1.00   0.04  0.00  0.00  0.02  0.95  0.00  0.00  0.40  0.00
  G96                     1.00   0.04  0.00  0.00  0.77  0.20  0.00  0.00  0.91  0.00
  G152                    1.00   0.04  0.00  0.00  0.03  0.93  0.00  0.00  0.44  0.00
  G153                    1.00   0.04  0.00  0.00  0.00  0.96  0.00  0.00  0.34  0.00
  
  
  *************************
  Conduit Surcharge Summary
  *************************
  
  ----------------------------------------------------------------------------
                                                           Hours        Hours 
                         --------- Hours Full --------   Above Full   Capacity
  Conduit                Both Ends  Upstream  Dnstream   Normal Flow   Limited
  ----------------------------------------------------------------------------
  G1                          0.17      0.17      0.18      0.01         0.01
  G2                          0.18      0.18      0.20      0.01         0.01
  G3                          0.20      0.20      0.20      0.01         0.01
  G4                          0.20      0.20      0.23      0.01         0.01
  G5                          0.21      0.21      0.23      0.01         0.01
  G6                          0.22      0.23      0.23      0.19         0.19
  G7                          0.23      0.23      0.25      0.22         0.22
  G8                          0.21      0.21      0.25      0.01         0.01
  G38                         0.09      0.09      0.12      0.01         0.01
  G39                         0.12      0.12      0.18      0.01         0.01
  G40                         0.17      0.17      0.18      0.01         0.01
  G41                         0.17      0.18      0.17      0.19         0.17
  G42                         0.17      0.17      0.17      0.01         0.01
  G43                         0.17      0.17      0.17      0.11         0.10
  G44                         0.16      0.16      0.17      0.01         0.01
  G45                         0.17      0.17      0.17      0.18         0.17
  G46                         0.16      0.16      0.17      0.01         0.01
  G47                         0.17      0.17      0.18      0.17         0.16
  G48                         0.17      0.17      0.18      0.01         0.01
  G49                         0.01      0.18      0.01      0.18         0.01
  G16                         0.06      0.06      0.06      0.01         0.01
  G17                         0.06      0.06      0.10      0.01         0.01
  G18                         0.06      0.06      0.10      0.01         0.01
  G19                         0.10      0.10      0.14      0.08         0.07
  G20                         0.06      0.06      0.08      0.01         0.01
  G21                         0.08      0.08      0.14      0.01         0.01
  G22                         0.06      0.06      0.14      0.01         0.01
  G23                         0.01      0.14      0.01      0.16         0.01
  G26                         0.01      0.01      0.05      0.01         0.01
  G9                          0.16      0.25      0.16      0.27         0.16
  G10                         0.01      0.01      0.05      0.01         0.01
  G11                         0.01      0.01      0.03      0.01         0.01
  G12                         0.04      0.04      0.18      0.01         0.01
  G13                         0.03      0.03      0.05      0.01         0.01
  G14                         0.01      0.05      0.01      0.23         0.01
  G30                         0.01      0.01      1.71      0.01         0.01
  G57                         0.01      0.01      0.01      0.02         0.01
  G61                         0.01      0.01      0.04      0.01         0.01
  G63                         0.04      0.04      0.05      0.01         0.01
  G64                         0.05      0.05      0.11      0.03         0.03
  G66                         0.11      0.18      0.11      0.32         0.11
  G65                         0.01      0.01      0.01      0.04         0.01
  G77                         0.01      0.01      0.06      0.01         0.01
  G62                         0.04      0.04      0.04      0.01         0.01
  G84                         0.01      0.01      0.21      0.01         0.01
  G152                        0.01      0.01      0.01      0.07         0.01
  

  Analysis begun on:  Thu Aug 21 12:33:37 2025
  Analysis ended on:  Thu Aug 21 12:33:44 2025
  Total elapsed time: 00:00:07