
  EPA STORM WATER MANAGEMENT MODEL - VERSION 5.2 (Build 5.2.4)
  PYSWMM TOOLKIT API - VERSION v1.0 (2023-11-27)
  ------------------------------------------------------------

  test 
  
  ****************
  Analysis Options
  ****************
  Flow Units ............... LPS
  Process Models:
    Rainfall/Runoff ........ YES
    RDII ................... NO
    Snowmelt ............... NO
    Groundwater ............ NO
    Flow Routing ........... YES
    Ponding Allowed ........ YES
    Water Quality .......... NO
  Infiltration Method ...... GREEN_AMPT
  Flow Routing Method ...... DYNWAVE
  Surcharge Method ......... EXTRAN
  Starting Date ............ 11/13/2024 00:00:00
  Ending Date .............. 11/13/2024 01:55:00
  Antecedent Dry Days ...... 7.0
  Report Time Step ......... 00:05:00
  Wet Time Step ............ 00:01:00
  Dry Time Step ............ 01:00:00
  Routing Time Step ........ 0.60 sec
  Variable Time Step ....... YES
  Maximum Trials ........... 8
  Number of Threads ........ 1
  Head Tolerance ........... 0.001500 m
  
  
  **************************        Volume         Depth
  Runoff Quantity Continuity     hectare-m            mm
  **************************     ---------       -------
  Total Precipitation ......         0.571        61.587
  Evaporation Loss .........         0.000         0.000
  Infiltration Loss ........         0.165        17.777
  Surface Runoff ...........         0.375        40.511
  Final Storage ............         0.021         2.270
  Continuity Error (%) .....         1.670
  
  
  **************************        Volume        Volume
  Flow Routing Continuity        hectare-m      10^6 ltr
  **************************     ---------     ---------
  Dry Weather Inflow .......         0.000         0.000
  Wet Weather Inflow .......         0.375         3.751
  Groundwater Inflow .......         0.000         0.000
  RDII Inflow ..............         0.000         0.000
  External Inflow ..........         0.000         0.000
  External Outflow .........         0.372         3.724
  Flooding Loss ............         0.000         0.000
  Evaporation Loss .........         0.000         0.000
  Exfiltration Loss ........         0.000         0.000
  Initial Stored Volume ....         0.000         0.000
  Final Stored Volume ......         0.003         0.028
  Continuity Error (%) .....        -0.034
  
  
  *************************
  Highest Continuity Errors
  *************************
  Node P31 (1.87%)
  
  
  ***************************
  Time-Step Critical Elements
  ***************************
  None
  
  
  ********************************
  Highest Flow Instability Indexes
  ********************************
  Link G66 (13)
  Link G65 (5)
  Link G30 (4)
  Link G79 (3)
  Link G8 (3)
  
  
  *********************************
  Most Frequent Nonconverging Nodes
  *********************************
  Node E1 (2.36%)
  Node E32 (2.36%)
  Node E33 (2.36%)
  Node P9 (0.56%)
  Node P6 (0.51%)
  
  
  *************************
  Routing Time Step Summary
  *************************
  Minimum Time Step           :     0.40 sec
  Average Time Step           :     0.50 sec
  Maximum Time Step           :     0.60 sec
  % of Time in Steady State   :     0.00
  Average Iterations per Step :     2.21
  % of Steps Not Converging   :     2.36
  Time Step Frequencies       :
      0.600 -  0.579 sec      :    99.61 %
      0.579 -  0.558 sec      :     0.03 %
      0.558 -  0.538 sec      :     0.03 %
      0.538 -  0.519 sec      :     0.01 %
      0.519 -  0.500 sec      :     0.32 %
  
  
  ***************************
  Subcatchment Runoff Summary
  ***************************
  
  ------------------------------------------------------------------------------------------------------------------------------
                            Total      Total      Total      Total     Imperv       Perv      Total       Total     Peak  Runoff
                           Precip      Runon       Evap      Infil     Runoff     Runoff     Runoff      Runoff   Runoff   Coeff
  Subcatchment                 mm         mm         mm         mm         mm         mm         mm    10^6 ltr      LPS
  ------------------------------------------------------------------------------------------------------------------------------
  B140                      61.59       0.00       0.00      17.59      24.56      17.81      40.59        0.03    26.44   0.659
  B139                      61.59       0.00       0.00      17.58      24.56      17.82      40.60        0.03    26.21   0.659
  B141                      61.59       0.00       0.00      17.50      24.59      18.10      40.89        0.01    13.42   0.664
  B142                      61.59       0.00       0.00      17.50      24.59      18.10      40.89        0.01    13.42   0.664
  B144                      61.59       0.00       0.00      17.50      24.59      18.10      40.89        0.01    13.42   0.664
  B145                      61.59       0.00       0.00      17.50      24.59      18.10      40.89        0.01    13.42   0.664
  B146                      61.59       0.00       0.00      17.50      24.59      18.10      40.89        0.01    13.42   0.664
  B147                      61.59       0.00       0.00      17.50      24.59      18.10      40.89        0.01    13.42   0.664
  B148                      61.59       0.00       0.00      17.50      24.59      18.10      40.89        0.01    13.42   0.664
  B149                      61.59       0.00       0.00      17.60      24.54      17.75      40.52        0.03    24.33   0.658
  B108                      61.59       0.00       0.00      17.63      24.53      17.65      40.42        0.01    12.09   0.656
  B42                       61.59       0.00       0.00      17.65      24.52      17.56      40.32        0.01    11.83   0.655
  B40                       61.59       0.00       0.00      17.65      24.52      17.56      40.32        0.01    11.83   0.655
  B38                       61.59       0.00       0.00      17.65      24.52      17.56      40.32        0.01    11.83   0.655
  B36                       61.59       0.00       0.00      17.65      24.52      17.56      40.32        0.01    11.83   0.655
  B34                       61.59       0.00       0.00      17.65      24.52      17.56      40.32        0.01    11.83   0.655
  B32                       61.59       0.00       0.00      17.65      24.52      17.56      40.32        0.01    11.83   0.655
  B30                       61.59       0.00       0.00      17.65      24.52      17.56      40.32        0.01    11.83   0.655
  B9                        61.59       0.00       0.00      17.65      24.52      17.56      40.32        0.01    11.83   0.655
  B7                        61.59       0.00       0.00      17.65      24.52      17.56      42.08        0.01    12.45   0.683
  B5                        61.59       0.00       0.00      17.65      24.52      17.56      40.32        0.01    11.83   0.655
  B3                        61.59       0.00       0.00      17.65      24.52      17.56      40.32        0.01    11.83   0.655
  B1                        61.59       0.00       0.00      17.65      24.52      17.56      42.08        0.01    12.45   0.683
  B23                       61.59       0.00       0.00      17.65      24.52      17.56      42.08        0.01    12.45   0.683
  B21                       61.59       0.00       0.00      17.65      24.52      17.56      40.32        0.01    11.83   0.655
  B19                       61.59       0.00       0.00      17.65      24.52      17.56      40.32        0.01    11.83   0.655
  B17                       61.59       0.00       0.00      17.65      24.52      17.56      40.32        0.01    11.83   0.655
  B15                       61.59       0.00       0.00      17.65      24.52      17.56      40.32        0.01    11.83   0.655
  B13                       61.59       0.00       0.00      17.65      24.52      17.56      40.32        0.01    11.83   0.655
  B11                       61.59       0.00       0.00      17.65      24.52      17.56      40.32        0.01    11.83   0.655
  B129                      61.59       0.00       0.00      17.50      24.59      18.11      40.89        0.01    13.42   0.664
  B127                      61.59       0.00       0.00      17.50      24.59      18.11      40.89        0.01    13.42   0.664
  B125                      61.59       0.00       0.00      17.50      24.59      18.11      40.89        0.01    13.42   0.664
  B123                      61.59       0.00       0.00      17.55      24.57      17.93      40.71        0.01    12.97   0.661
  B121                      61.59       0.00       0.00      17.55      24.57      17.93      40.71        0.01    12.97   0.661
  B120                      61.59       0.00       0.00      17.55      24.57      17.93      40.71        0.01    12.97   0.661
  B119                      61.59       0.00       0.00      17.55      24.57      17.93      40.71        0.01    12.97   0.661
  B113                      61.59       0.00       0.00      17.63      24.53      17.65      40.42        0.01    12.09   0.656
  B111                      61.59       0.00       0.00      17.63      24.53      17.65      40.42        0.01    12.09   0.656
  B109                      61.59       0.00       0.00      17.63      24.53      17.65      40.42        0.01    12.09   0.656
  B107                      61.59       0.00       0.00      17.63      24.53      17.65      40.42        0.01    12.09   0.656
  B105                      61.59       0.00       0.00      17.63      24.53      17.65      40.42        0.01    12.09   0.656
  B103                      61.59       0.00       0.00      17.63      24.53      17.65      40.42        0.01    12.09   0.656
  B101                      61.59       0.00       0.00      17.63      24.53      17.65      40.42        0.01    12.09   0.656
  BB118                     61.59       0.00       0.00      17.63      24.53      17.67      40.43        0.02    23.79   0.656
  B99                       61.59       0.00       0.00      17.77      24.44      17.02      39.76        0.02    20.71   0.646
  B28                       61.59       0.00       0.00      17.80      24.42      16.84      39.58        0.02    20.11   0.643
  B115                      61.59       0.00       0.00      17.63      24.53      17.65      40.42        0.01    12.09   0.656
  B22                       61.59       0.00       0.00      17.65      24.52      17.56      40.32        0.01    11.83   0.655
  B20                       61.59       0.00       0.00      17.65      24.52      17.56      40.32        0.01    11.83   0.655
  B18                       61.59       0.00       0.00      17.65      24.52      17.56      40.32        0.01    11.83   0.655
  B16                       61.59       0.00       0.00      17.65      24.52      17.56      40.32        0.01    11.83   0.655
  B14                       61.59       0.00       0.00      17.65      24.52      17.56      40.32        0.01    11.83   0.655
  B12                       61.59       0.00       0.00      17.65      24.52      17.56      40.32        0.01    11.83   0.655
  B10                       61.59       0.00       0.00      17.65      24.52      17.56      40.32        0.01    11.83   0.655
  B8                        61.59       0.00       0.00      17.65      24.52      17.56      42.08        0.01    12.45   0.683
  B6                        61.59       0.00       0.00      17.65      24.52      17.56      40.32        0.01    11.83   0.655
  B4                        61.59       0.00       0.00      17.65      24.52      17.56      40.32        0.01    11.83   0.655
  B2                        61.59       0.00       0.00      17.65      24.52      17.56      40.32        0.01    11.83   0.655
  B29                       61.59       0.00       0.00      17.65      24.52      17.56      40.32        0.01    11.83   0.655
  B31                       61.59       0.00       0.00      17.65      24.52      17.56      40.32        0.01    11.83   0.655
  B33                       61.59       0.00       0.00      17.65      24.52      17.56      40.32        0.01    11.83   0.655
  B35.                      61.59       0.00       0.00      17.65      24.52      17.56      40.32        0.01    11.83   0.655
  B37                       61.59       0.00       0.00      17.65      24.52      17.56      40.32        0.01    11.83   0.655
  B39                       61.59       0.00       0.00      17.65      24.52      17.56      42.08        0.01    12.45   0.683
  B41                       61.59       0.00       0.00      17.65      24.52      17.56      40.32        0.01    11.83   0.655
  B43                       61.59       0.00       0.00      17.65      24.52      17.56      40.32        0.01    11.83   0.655
  B27                       61.59       0.00       0.00      17.80      24.42      16.84      39.58        0.02    20.11   0.643
  B25                       61.59       0.00       0.00      17.80      24.42      16.84      39.58        0.02    20.11   0.643
  B24                       61.59       0.00       0.00      17.80      24.42      16.84      41.27        0.03    20.99   0.670
  B67                       61.59       0.00       0.00      17.80      24.42      16.84      39.58        0.02    20.11   0.643
  B68                       61.59       0.00       0.00      17.80      24.42      16.84      39.58        0.02    20.11   0.643
  B98                       61.59       0.00       0.00      17.77      24.44      17.02      39.76        0.02    20.71   0.646
  B97                       61.59       0.00       0.00      17.88      24.38      16.42      39.15        0.02    18.90   0.636
  B46                       61.59       0.00       0.00      17.71      24.49      17.31      40.07        0.02    14.90   0.651
  B45                       61.59       0.00       0.00      17.85      24.41      16.60      39.35        0.03    22.62   0.639
  B47                       61.59       0.00       0.00      17.85      24.40      16.56      39.31        0.03    23.02   0.638
  B44                       61.59       0.00       0.00      17.71      24.48      17.31      40.07        0.02    14.90   0.651
  B122                      61.59       0.00       0.00      17.62      24.53      17.69      40.46        0.03    23.96   0.657
  B124                      61.59       0.00       0.00      17.55      24.57      17.93      40.71        0.01    12.97   0.661
  B126                      61.59       0.00       0.00      17.55      24.57      17.93      40.71        0.01    12.97   0.661
  B128                      61.59       0.00       0.00      17.55      24.57      17.93      40.71        0.01    12.97   0.661
  B130                      61.59       0.00       0.00      17.55      24.57      17.93      40.71        0.01    12.97   0.661
  B132                      61.59       0.00       0.00      17.50      24.59      18.11      40.89        0.01    13.42   0.664
  B135                      61.59       0.00       0.00      17.50      24.59      18.11      40.89        0.01    13.42   0.664
  B137                      61.59       0.00       0.00      17.50      24.59      18.11      40.89        0.01    13.42   0.664
  BBB118                    61.59       0.00       0.00      17.77      24.44      17.02      39.76        0.02    20.71   0.646
  B48                       61.59       0.00       0.00      17.80      24.42      16.84      39.58        0.02    20.11   0.643
  BB117                     61.59       0.00       0.00      17.77      24.44      17.02      39.76        0.02    20.71   0.646
  B83                       61.59       0.00       0.00      17.65      24.52      17.56      40.32        0.01    11.83   0.655
  B81                       61.59       0.00       0.00      17.65      24.52      17.56      40.32        0.01    11.83   0.655
  B79                       61.59       0.00       0.00      17.65      24.52      17.56      40.32        0.01    11.83   0.655
  B77                       61.59       0.00       0.00      17.65      24.52      17.56      40.32        0.01    11.83   0.655
  B75                       61.59       0.00       0.00      17.65      24.52      17.56      40.32        0.01    11.83   0.655
  B73                       61.59       0.00       0.00      17.65      24.52      17.56      40.32        0.01    11.83   0.655
  B71                       61.59       0.00       0.00      17.65      24.52      17.56      40.32        0.01    11.83   0.655
  B69                       61.59       0.00       0.00      17.65      24.52      17.56      40.32        0.01    11.83   0.655
  B70                       61.59       0.00       0.00      17.65      24.52      17.56      40.32        0.01    11.83   0.655
  B72                       61.59       0.00       0.00      17.65      24.52      17.56      40.32        0.01    11.83   0.655
  B74                       61.59       0.00       0.00      17.65      24.52      17.56      40.32        0.01    11.83   0.655
  B76                       61.59       0.00       0.00      17.65      24.52      17.56      40.32        0.01    11.83   0.655
  B78                       61.59       0.00       0.00      17.65      24.52      17.56      40.32        0.01    11.83   0.655
  B80                       61.59       0.00       0.00      17.65      24.52      17.56      40.32        0.01    11.83   0.655
  B82                       61.59       0.00       0.00      17.65      24.52      17.56      40.32        0.01    11.83   0.655
  B84                       61.59       0.00       0.00      17.65      24.52      17.56      40.32        0.01    11.83   0.655
  B85                       61.59       0.00       0.00      17.63      24.53      17.65      40.42        0.01    12.09   0.656
  B86                       61.59       0.00       0.00      17.63      24.53      17.65      40.42        0.01    12.09   0.656
  B88                       61.59       0.00       0.00      17.63      24.53      17.65      40.42        0.01    12.09   0.656
  B90                       61.59       0.00       0.00      17.63      24.53      17.65      40.42        0.01    12.09   0.656
  B92                       61.59       0.00       0.00      17.63      24.53      17.65      40.42        0.01    12.09   0.656
  B94                       61.59       0.00       0.00      17.63      24.53      17.65      40.42        0.01    12.09   0.656
  B96                       61.59       0.00       0.00      17.63      24.53      17.65      40.42        0.01    12.09   0.656
  B95                       61.59       0.00       0.00      17.63      24.53      17.65      40.42        0.01    12.09   0.656
  B93                       61.59       0.00       0.00      17.63      24.53      17.65      40.42        0.01    12.09   0.656
  B91                       61.59       0.00       0.00      17.63      24.53      17.65      40.42        0.01    12.09   0.656
  B89                       61.59       0.00       0.00      17.63      24.53      17.65      40.42        0.01    12.09   0.656
  B87                       61.59       0.00       0.00      17.63      24.53      17.65      40.42        0.01    12.09   0.656
  B116                      61.59       0.00       0.00      17.63      24.53      17.65      40.42        0.01    12.09   0.656
  B114                      61.59       0.00       0.00      17.63      24.53      17.65      40.42        0.01    12.09   0.656
  B112                      61.59       0.00       0.00      17.63      24.53      17.65      40.42        0.01    12.09   0.656
  B110                      61.59       0.00       0.00      17.63      24.53      17.65      40.42        0.01    12.09   0.656
  B50                       61.59       0.00       0.00      17.65      24.52      17.56      40.32        0.01    11.83   0.655
  B52                       61.59       0.00       0.00      17.65      24.52      17.56      40.32        0.01    11.83   0.655
  B54                       61.59       0.00       0.00      17.65      24.52      17.56      40.32        0.01    11.83   0.655
  B56                       61.59       0.00       0.00      17.65      24.52      17.56      40.32        0.01    11.83   0.655
  B58                       61.59       0.00       0.00      17.65      24.52      17.56      40.32        0.01    11.83   0.655
  B60                       61.59       0.00       0.00      17.65      24.52      17.56      40.32        0.01    11.83   0.655
  B106                      61.59       0.00       0.00      17.63      24.53      17.65      40.42        0.01    12.09   0.656
  B104                      61.59       0.00       0.00      17.63      24.53      17.65      40.42        0.01    12.09   0.656
  B102                      61.59       0.00       0.00      17.63      24.53      17.65      40.42        0.01    12.09   0.656
  B100                      61.59       0.00       0.00      17.77      24.44      17.02      39.76        0.02    20.71   0.646
  B66                       61.59       0.00       0.00      17.80      24.42      16.84      39.58        0.02    20.11   0.643
  B62                       61.59       0.00       0.00      17.65      24.52      17.56      40.32        0.01    11.83   0.655
  B64                       61.59       0.00       0.00      17.65      24.52      17.56      40.32        0.01    11.83   0.655
  B65                       61.59       0.00       0.00      17.80      24.42      16.84      39.58        0.02    20.11   0.643
  B63                       61.59       0.00       0.00      17.65      24.52      17.56      40.32        0.01    11.83   0.655
  B61                       61.59       0.00       0.00      17.65      24.52      17.56      40.32        0.01    11.83   0.655
  B59                       61.59       0.00       0.00      17.65      24.52      17.56      40.32        0.01    11.83   0.655
  B57                       61.59       0.00       0.00      17.65      24.52      17.56      40.32        0.01    11.83   0.655
  B55                       61.59       0.00       0.00      17.65      24.52      17.56      40.32        0.01    11.83   0.655
  B53                       61.59       0.00       0.00      17.65      24.52      17.56      40.32        0.01    11.83   0.655
  B51                       61.59       0.00       0.00      17.65      24.52      17.56      40.32        0.01    11.83   0.655
  B49                       61.59       0.00       0.00      17.65      24.52      17.56      40.32        0.01    11.83   0.655
  B138                      61.59       0.00       0.00      17.59      24.55      17.79      40.57        0.03    27.59   0.659
  B188                      61.59       0.00       0.00      17.62      24.54      17.70      42.24        0.03    27.72   0.686
  B189                      61.59       0.00       0.00      17.52      24.59      18.05      42.64        0.01    14.07   0.692
  B190                      61.59       0.00       0.00      17.52      24.59      18.05      42.64        0.01    14.07   0.692
  B191                      61.59       0.00       0.00      17.52      24.59      18.05      42.64        0.01    14.07   0.692
  B192                      61.59       0.00       0.00      17.52      24.59      18.05      42.64        0.01    14.07   0.692
  B193                      61.59       0.00       0.00      17.52      24.59      18.05      42.64        0.01    14.07   0.692
  B194                      61.59       0.00       0.00      17.60      24.54      17.75      42.30        0.03    25.68   0.687
  B195                      61.59       0.00       0.00      17.80      24.43      16.86      41.29        0.03    21.06   0.670
  B196                      61.59       0.00       0.00      17.65      24.52      17.57      42.09        0.01    12.48   0.683
  B197                      61.59       0.00       0.00      17.65      24.52      17.57      42.09        0.01    12.48   0.683
  B198                      61.59       0.00       0.00      17.65      24.52      17.57      42.09        0.01    12.48   0.683
  B199                      61.59       0.00       0.00      17.65      24.52      17.57      42.09        0.01    12.48   0.683
  B204                      61.59       0.00       0.00      17.80      24.43      16.86      41.29        0.03    21.06   0.670
  B203                      61.59       0.00       0.00      17.65      24.52      17.57      42.09        0.01    12.48   0.683
  B202                      61.59       0.00       0.00      17.65      24.52      17.57      42.09        0.01    12.48   0.683
  B200                      61.59       0.00       0.00      17.65      24.52      17.57      42.09        0.01    12.48   0.683
  B201                      61.59       0.00       0.00      17.65      24.52      17.57      42.09        0.01    12.48   0.683
  B176                      61.59       0.00       0.00      17.62      24.54      17.70      40.47        0.03    26.38   0.657
  B177                      61.59       0.00       0.00      17.52      24.59      18.05      40.83        0.01    13.29   0.663
  B178                      61.59       0.00       0.00      17.52      24.59      18.05      42.64        0.01    14.07   0.692
  B179                      61.59       0.00       0.00      17.52      24.59      18.05      42.64        0.01    14.07   0.692
  B180                      61.59       0.00       0.00      17.52      24.59      18.05      42.64        0.01    14.07   0.692
  B181                      61.59       0.00       0.00      17.52      24.59      18.05      42.64        0.01    14.07   0.692
  B182                      61.59       0.00       0.00      17.52      24.59      18.05      42.64        0.01    14.07   0.692
  B183                      61.59       0.00       0.00      17.65      24.52      17.57      42.09        0.01    12.48   0.683
  B184                      61.59       0.00       0.00      17.65      24.52      17.57      42.09        0.01    12.48   0.683
  B185                      61.59       0.00       0.00      17.65      24.52      17.57      42.09        0.01    12.48   0.683
  B186                      61.59       0.00       0.00      17.65      24.52      17.57      42.09        0.01    12.48   0.683
  B187                      61.59       0.00       0.00      17.80      24.43      16.86      39.60        0.02    20.18   0.643
  B165                      61.59       0.00       0.00      17.68      24.50      17.47      40.23        0.02    22.71   0.653
  BB166                     61.59       0.00       0.00      17.56      24.56      17.89      42.45        0.01    13.57   0.689
  BB167                     61.59       0.00       0.00      17.56      24.56      17.89      42.45        0.01    13.57   0.689
  B168                      61.59       0.00       0.00      17.50      24.59      18.10      42.69        0.01    14.20   0.693
  B169                      61.59       0.00       0.00      17.50      24.59      18.10      40.88        0.01    13.40   0.664
  B170                      61.59       0.00       0.00      17.50      24.59      18.10      40.88        0.01    13.40   0.664
  B171                      61.59       0.00       0.00      17.50      24.59      18.10      40.88        0.01    13.40   0.664
  B172                      61.59       0.00       0.00      17.50      24.59      18.10      40.88        0.01    13.40   0.664
  B173                      61.59       0.00       0.00      17.49      24.60      18.14      40.93        0.01    13.50   0.665
  B174                      61.59       0.00       0.00      17.49      24.60      18.14      40.93        0.01    13.50   0.665
  B175                      61.59       0.00       0.00      17.56      24.62      17.90      40.73        0.03    25.91   0.661
  B150                      61.59       0.00       0.00      17.56      24.57      17.90      42.47        0.03    27.44   0.690
  B151                      61.59       0.00       0.00      17.50      24.60      18.10      42.69        0.02    16.59   0.693
  B152                      61.59       0.00       0.00      17.50      24.59      18.10      42.69        0.02    16.59   0.693
  B153                      61.59       0.00       0.00      17.51      24.59      18.07      42.66        0.01    15.31   0.693
  B154                      61.59       0.00       0.00      17.51      24.59      18.06      42.65        0.02    15.94   0.692
  B155                      61.59       0.00       0.00      17.52      24.59      18.05      42.63        0.02    16.56   0.692
  B157                      61.59       0.00       0.00      17.50      24.59      18.09      42.68        0.01    14.54   0.693
  B158                      61.59       0.00       0.00      17.50      24.59      18.09      40.87        0.01    13.93   0.664
  B159                      61.59       0.00       0.00      17.58      24.56      17.84      40.61        0.01    14.08   0.659
  B160                      61.59       0.00       0.00      17.50      24.59      18.10      40.88        0.01    13.40   0.664
  B161                      61.59       0.00       0.00      17.60      24.55      17.76      40.53        0.02    16.08   0.658
  B162                      61.59       0.00       0.00      17.56      24.56      17.89      40.67        0.01    12.83   0.660
  B163                      61.59       0.00       0.00      17.71      24.49      17.33      40.09        0.03    25.63   0.651
  B164                      61.59       0.00       0.00      17.76      24.46      17.08      39.83        0.04    30.76   0.647
  B210                      61.59       0.00       0.00      18.91      24.30      25.57      37.72        0.36   235.15   0.613
  B205                      61.59       0.00       0.00      17.81      24.43      16.80      41.23        0.03    21.73   0.669
  B206                      61.59       0.00       0.00      17.67      24.51      17.50      42.01        0.01    13.43   0.682
  B207                      61.59       0.00       0.00      17.68      24.50      17.43      41.93        0.02    14.35   0.681
  B208                      61.59       0.00       0.00      17.71      24.49      17.34      41.82        0.02    15.57   0.679
  B209                      61.59       0.00       0.00      17.73      24.47      17.21      41.68        0.02    17.11   0.677
  B211                      61.59       0.00       0.00      17.84      24.41      16.67      41.08        0.03    22.82   0.667
  B212                      61.59       0.00       0.00      17.59      24.55      17.81      42.36        0.01    13.84   0.688
  B213                      61.59       0.00       0.00      17.61      24.54      17.74      42.29        0.02    15.37   0.687
  B214                      61.59       0.00       0.00      17.72      24.48      17.29      41.77        0.03    24.68   0.678
  B215                      61.59       0.00       0.00      17.62      24.54      17.70      42.24        0.02    21.47   0.686
  B216                      61.59       0.00       0.00      17.68      24.50      17.44      41.94        0.03    28.65   0.681
  B217                      61.59       0.00       0.00      17.60      24.54      17.75      42.30        0.01    13.09   0.687
  B218                      61.59       0.00       0.00      17.60      24.54      17.75      42.30        0.01    13.09   0.687
  B219                      61.59       0.00       0.00      17.60      24.54      17.75      42.30        0.01    13.09   0.687
  B220                      61.59       0.00       0.00      17.64      24.53      17.62      42.14        0.02    15.67   0.684
  B221                      61.59       0.00       0.00      17.68      24.51      17.46      41.97        0.04    33.70   0.682
  B224                      61.59       0.00       0.00      17.52      24.58      18.03      42.61        0.01    14.01   0.692
  B223                      61.59       0.00       0.00      17.52      24.58      18.03      42.61        0.01    14.01   0.692
  B222                      61.59       0.00       0.00      17.66      24.51      17.53      42.04        0.02    20.75   0.683
  
  
  ******************
  Node Depth Summary
  ******************
  
  ---------------------------------------------------------------------------------
                                 Average  Maximum  Maximum  Time of Max    Reported
                                   Depth    Depth      HGL   Occurrence   Max Depth
  Node                 Type       Meters   Meters   Meters  days hr:min      Meters
  ---------------------------------------------------------------------------------
  P1                   JUNCTION     0.06     1.00  1048.19     0  01:03        0.56
  P2                   JUNCTION     0.09     1.01  1048.03     0  01:03        0.72
  P3                   JUNCTION     0.09     1.03  1047.72     0  01:04        0.95
  P4                   JUNCTION     0.14     1.19  1047.71     0  01:04        1.12
  P5                   JUNCTION     0.12     1.25  1047.43     0  01:05        1.17
  P6                   JUNCTION     0.18     1.42  1047.43     0  01:04        1.33
  P7                   JUNCTION     0.19     1.36  1047.15     0  01:05        1.28
  P8                   JUNCTION     0.10     1.00  1046.55     0  01:01        0.85
  P9                   JUNCTION     0.18     1.06  1046.43     0  01:04        1.02
  P10                  JUNCTION     0.04     0.29  1045.23     0  01:04        0.18
  P11                  JUNCTION     0.12     0.38  1045.15     0  01:04        0.37
  P12                  JUNCTION     0.05     0.28  1044.79     0  01:03        0.27
  P13                  JUNCTION     0.14     0.44  1044.78     0  01:04        0.44
  P17                  JUNCTION     0.04     0.13  1046.28     0  01:04        0.13
  P18                  JUNCTION     0.07     0.22  1046.21     0  01:04        0.21
  P19                  JUNCTION     0.03     0.10  1046.06     0  01:04        0.10
  P20                  JUNCTION     0.10     0.81  1046.30     0  01:03        0.61
  P23                  JUNCTION     0.02     0.16  1045.83     0  01:04        0.08
  P24                  JUNCTION     0.11     0.60  1045.86     0  01:03        0.54
  P25                  JUNCTION     0.03     0.20  1044.92     0  01:04        0.17
  P26                  JUNCTION     0.10     0.31  1044.88     0  01:04        0.30
  P27                  JUNCTION     0.08     0.30  1044.51     0  01:04        0.30
  P28                  JUNCTION     0.11     0.34  1044.51     0  01:04        0.34
  P29                  JUNCTION     0.03     0.13  1044.15     0  01:05        0.10
  P30                  JUNCTION     0.10     0.31  1044.16     0  01:04        0.31
  P31                  JUNCTION     0.42     0.54  1043.94     0  01:03        0.54
  P32                  JUNCTION     0.14     0.42  1043.64     0  01:04        0.41
  P33                  JUNCTION     0.03     0.17  1042.61     0  01:04        0.13
  P34                  JUNCTION     0.11     0.32  1042.58     0  01:04        0.31
  P35                  JUNCTION     0.03     0.12  1040.81     0  01:05        0.08
  P36                  JUNCTION     0.10     0.28  1040.79     0  01:04        0.28
  P37                  JUNCTION     0.04     0.11  1037.56     0  01:04        0.11
  P38                  JUNCTION     0.10     0.30  1037.58     0  01:04        0.30
  P39                  JUNCTION     0.02     0.07  1048.24     0  01:04        0.07
  P40                  JUNCTION     0.04     0.13  1048.13     0  01:04        0.13
  P41                  JUNCTION     0.03     1.07  1048.57     0  01:04        0.34
  P42                  JUNCTION     0.12     1.12  1048.04     0  01:04        0.93
  P43                  JUNCTION     0.04     1.01  1047.93     0  01:03        0.84
  P44                  JUNCTION     0.11     1.01  1047.76     0  01:03        1.00
  P45                  JUNCTION     0.05     1.01  1047.30     0  01:03        0.85
  P46                  JUNCTION     0.11     1.06  1047.18     0  01:04        1.01
  P47                  JUNCTION     0.05     1.00  1046.34     0  01:03        0.83
  P48                  JUNCTION     0.11     1.00  1046.17     0  01:04        1.00
  P49                  JUNCTION     0.05     0.96  1045.47     0  01:03        0.80
  P50                  JUNCTION     0.12     1.08  1045.42     0  01:03        0.95
  P51                  JUNCTION     0.03     0.09  1042.80     0  01:04        0.09
  P52                  JUNCTION     0.09     0.29  1042.83     0  01:04        0.29
  P53                  JUNCTION     0.04     0.15  1038.72     0  01:04        0.15
  P54                  JUNCTION     0.10     0.29  1038.69     0  01:04        0.29
  P55                  JUNCTION     0.13     0.41  1037.66     0  01:04        0.40
  P57                  JUNCTION     0.11     0.34  1037.20     0  01:04        0.34
  P58                  JUNCTION     0.18     0.56  1036.22     0  01:04        0.56
  P22                  JUNCTION     0.03     0.31  1045.84     0  01:04        0.21
  P21                  JUNCTION     0.03     0.15  1045.85     0  01:04        0.07
  P16                  JUNCTION     0.08     0.22  1044.25     0  01:04        0.22
  P14                  JUNCTION     0.18     0.51  1044.66     0  01:04        0.50
  P84                  JUNCTION     0.00     0.03  1044.31     0  01:04        0.03
  P85                  JUNCTION     0.02     0.06  1044.31     0  01:04        0.06
  P86                  JUNCTION     0.03     0.10  1040.61     0  01:04        0.10
  P87                  JUNCTION     0.06     0.20  1037.26     0  01:04        0.20
  P88                  JUNCTION     0.06     0.18  1036.84     0  01:04        0.18
  P89                  JUNCTION     0.18     0.60  1036.66     0  01:04        0.59
  P59                  JUNCTION     0.03     0.09  1047.76     0  01:04        0.09
  P61                  JUNCTION     0.07     0.20  1046.79     0  01:04        0.20
  P62                  JUNCTION     0.08     0.26  1046.49     0  01:04        0.26
  P63                  JUNCTION     0.09     0.27  1046.29     0  01:04        0.27
  P64                  JUNCTION     0.13     0.37  1045.85     0  01:04        0.37
  P65                  JUNCTION     0.14     0.43  1045.94     0  01:04        0.43
  P66                  JUNCTION     0.12     0.34  1045.66     0  01:04        0.33
  P67                  JUNCTION     0.10     0.27  1044.65     0  01:04        0.27
  P68                  JUNCTION     0.04     0.11  1044.69     0  01:04        0.11
  P69                  JUNCTION     0.09     0.27  1042.01     0  01:04        0.27
  P70                  JUNCTION     0.03     0.11  1042.05     0  01:04        0.11
  P71                  JUNCTION     0.10     0.29  1038.56     0  01:04        0.29
  P72                  JUNCTION     0.04     0.12  1038.59     0  01:04        0.12
  P73                  JUNCTION     0.11     0.34  1037.55     0  01:04        0.34
  P74                  JUNCTION     0.15     0.46  1037.26     0  01:04        0.46
  P75                  JUNCTION     0.15     0.47  1037.04     0  01:04        0.46
  P76                  JUNCTION     0.16     0.54  1036.76     0  01:04        0.52
  P77                  JUNCTION     0.05     0.35  1036.77     0  01:04        0.34
  P78                  JUNCTION     0.07     0.24  1039.02     0  01:04        0.24
  P79                  JUNCTION     0.05     0.16  1038.75     0  01:04        0.16
  P80                  JUNCTION     0.05     0.14  1043.35     0  01:04        0.14
  P81                  JUNCTION     0.05     0.16  1043.38     0  01:04        0.16
  P82                  JUNCTION     0.04     0.11  1046.29     0  01:04        0.11
  P83                  JUNCTION     0.05     0.16  1046.35     0  01:04        0.15
  P60                  JUNCTION     0.06     0.17  1047.31     0  01:04        0.17
  P62A                 JUNCTION     0.06     0.24  1046.49     0  01:04        0.24
  P61A                 JUNCTION     0.05     0.19  1046.79     0  01:04        0.19
  P90                  JUNCTION     0.03     0.10  1047.23     0  01:04        0.10
  P91                  JUNCTION     0.03     0.10  1047.04     0  01:04        0.10
  P92                  JUNCTION     0.04     0.11  1046.20     0  01:04        0.11
  P93                  JUNCTION     0.06     0.20  1046.09     0  01:04        0.20
  P94                  JUNCTION     0.03     0.08  1045.82     0  01:04        0.08
  P95                  JUNCTION     0.07     0.21  1045.75     0  01:04        0.21
  P96                  JUNCTION     0.03     0.10  1045.48     0  01:04        0.10
  P97                  JUNCTION     0.07     0.21  1045.39     0  01:04        0.21
  E1                   OUTFALL      0.18     0.56  1035.56     0  01:04        0.55
  E32                  OUTFALL      0.18     0.60  1036.56     0  01:04        0.59
  E33                  OUTFALL      0.07     0.21  1044.59     0  01:04        0.21
  
  
  *******************
  Node Inflow Summary
  *******************
  
  -------------------------------------------------------------------------------------------------
                                  Maximum  Maximum                  Lateral       Total        Flow
                                  Lateral    Total  Time of Max      Inflow      Inflow     Balance
                                   Inflow   Inflow   Occurrence      Volume      Volume       Error
  Node                 Type           LPS      LPS  days hr:min    10^6 ltr    10^6 ltr     Percent
  -------------------------------------------------------------------------------------------------
  P1                   JUNCTION     47.93    47.93     0  01:04      0.0513      0.0513      -0.017
  P2                   JUNCTION     48.55   113.17     0  01:03      0.0519       0.103       0.125
  P3                   JUNCTION     47.30    68.25     0  01:02      0.0508      0.0508      -0.090
  P4                   JUNCTION     47.30   206.52     0  01:03      0.0508       0.205       0.228
  P5                   JUNCTION     56.46    64.49     0  01:01      0.0635      0.0636       0.026
  P6                   JUNCTION     47.93   263.12     0  01:03      0.0513       0.319       0.137
  P7                   JUNCTION     40.21   278.33     0  01:04      0.0489       0.367       0.119
  P8                   JUNCTION     55.58    55.58     0  01:04      0.0625      0.0625      -0.021
  P9                   JUNCTION     35.48   353.74     0  01:04      0.0381       0.468       0.200
  P10                  JUNCTION     36.10    42.48     0  01:05      0.0386      0.0395       0.170
  P11                  JUNCTION     35.48   448.87     0  01:03      0.0381       0.544       0.077
  P12                  JUNCTION     46.27    46.27     0  01:04      0.0537      0.0537       0.042
  P13                  JUNCTION     41.63   498.13     0  01:04      0.0463       0.643       0.100
  P17                  JUNCTION     59.13    59.13     0  01:04      0.0634      0.0634       0.030
  P18                  JUNCTION     59.13   118.12     0  01:04      0.0634       0.127       0.147
  P19                  JUNCTION     55.58    55.58     0  01:04      0.0625      0.0625       0.023
  P20                  JUNCTION     35.48   212.92     0  01:04      0.0381       0.227       0.147
  P23                  JUNCTION     20.11    20.11     0  01:04      0.0244      0.0244       0.053
  P24                  JUNCTION     20.11   251.98     0  01:04      0.0244         0.3       0.242
  P25                  JUNCTION     35.48    35.48     0  01:04      0.0381      0.0381       0.068
  P26                  JUNCTION     35.48   331.23     0  01:04      0.0381       0.376       0.090
  P27                  JUNCTION     35.48    35.48     0  01:04      0.0381      0.0381       0.052
  P28                  JUNCTION     35.48   381.66     0  01:04      0.0381       0.451       0.142
  P29                  JUNCTION     43.76    43.76     0  01:04      0.0498      0.0498       0.033
  P30                  JUNCTION     46.67   462.68     0  01:04      0.0544       0.555       0.112
  P31                  JUNCTION     24.33    24.33     0  01:04       0.025       0.025       1.904
  P32                  JUNCTION      0.00   981.38     0  01:04           0        1.22       0.061
  P33                  JUNCTION     40.25    40.25     0  01:04      0.0386      0.0386       0.070
  P34                  JUNCTION      0.00  1024.48     0  01:04           0        1.26       0.063
  P35                  JUNCTION     26.83    26.83     0  01:04      0.0257      0.0257       0.048
  P36                  JUNCTION      0.00  1041.15     0  01:04           0        1.28       0.048
  P37                  JUNCTION     53.27    53.27     0  01:04      0.0526      0.0526       0.026
  P38                  JUNCTION      0.00  1086.52     0  01:04           0        1.33       0.047
  P39                  JUNCTION     24.18    24.18     0  01:04      0.0254      0.0254       0.046
  P40                  JUNCTION     48.36    72.50     0  01:04      0.0509      0.0763       0.121
  P41                  JUNCTION     55.17    59.03     0  01:04      0.0623      0.0623       0.033
  P42                  JUNCTION     56.98   183.52     0  01:04      0.0627       0.201       0.312
  P43                  JUNCTION     32.80    64.31     0  01:03      0.0373      0.0373       0.028
  P44                  JUNCTION     32.80   256.60     0  01:03      0.0373       0.275       0.202
  P45                  JUNCTION     48.36    55.13     0  01:03      0.0509      0.0509       0.015
  P46                  JUNCTION     48.36   328.70     0  01:03      0.0509       0.376       0.134
  P47                  JUNCTION     56.98    56.98     0  01:04      0.0627      0.0627       0.026
  P48                  JUNCTION     56.98   407.16     0  01:04      0.0627       0.501       0.063
  P49                  JUNCTION     23.79    32.80     0  01:02       0.025       0.025       0.001
  P50                  JUNCTION     23.96   451.96     0  01:04       0.025       0.551       0.073
  P51                  JUNCTION     38.90    38.90     0  01:04      0.0384      0.0384       0.031
  P52                  JUNCTION     38.90   528.69     0  01:04      0.0384       0.627       0.081
  P53                  JUNCTION     80.83    80.83     0  01:04      0.0796      0.0796       0.025
  P54                  JUNCTION     53.24   656.73     0  01:04      0.0514       0.758       0.056
  P55                  JUNCTION     26.21   681.19     0  01:04      0.0265       0.784       0.052
  P57                  JUNCTION      0.00   680.28     0  01:04           0       0.783       0.151
  P58                  JUNCTION      0.00  1763.61     0  01:04           0        2.12       0.010
  P22                  JUNCTION      0.00    35.66     0  01:04           0      0.0244       0.074
  P21                  JUNCTION     20.11    20.11     0  01:04      0.0244      0.0244       0.058
  P16                  JUNCTION      0.00   497.35     0  01:04           0       0.641       0.054
  P14                  JUNCTION      0.00   497.06     0  01:04           0       0.642       0.160
  P84                  JUNCTION      0.00     0.31     0  01:00           0    3.42e-05       0.177
  P85                  JUNCTION     25.63    25.63     0  01:04      0.0288      0.0288       0.114
  P86                  JUNCTION     61.27    86.59     0  01:04      0.0603      0.0891       0.103
  P87                  JUNCTION     31.90   117.89     0  01:04      0.0302       0.119       0.161
  P88                  JUNCTION      0.00   117.25     0  01:04           0       0.119       0.200
  P89                  JUNCTION      0.00  1205.04     0  01:04           0        1.41       0.051
  P59                  JUNCTION     53.89    53.89     0  01:04      0.0574      0.0574       0.022
  P61                  JUNCTION     32.68   107.86     0  01:04       0.037       0.123       0.107
  P62                  JUNCTION     49.51   156.01     0  01:04      0.0567       0.179       0.146
  P63                  JUNCTION     21.06   175.26     0  01:04      0.0255       0.204       0.161
  P64                  JUNCTION     37.45   444.13     0  01:04      0.0397       0.603       0.115
  P65                  JUNCTION    235.15   235.15     0  01:04       0.359       0.359       0.048
  P66                  JUNCTION     24.97   466.40     0  01:04      0.0265       0.629       0.125
  P67                  JUNCTION     58.52   577.13     0  01:04      0.0652       0.757       0.121
  P68                  JUNCTION     57.63    57.63     0  01:04      0.0642      0.0642       0.026
  P69                  JUNCTION     39.75   664.84     0  01:04      0.0395       0.849       0.098
  P70                  JUNCTION     54.70    54.70     0  01:04      0.0535      0.0535       0.025
  P71                  JUNCTION     56.29   780.30     0  01:04      0.0537       0.969       0.059
  P72                  JUNCTION     67.82    67.82     0  01:04      0.0672      0.0672       0.023
  P73                  JUNCTION     27.72   806.19     0  01:04      0.0286       0.997       0.022
  P74                  JUNCTION      0.00   807.11     0  01:04           0       0.997       0.054
  P75                  JUNCTION      0.00   809.65     0  01:04           0       0.997       0.102
  P76                  JUNCTION      0.00   846.85     0  01:04           0        1.02       0.096
  P77                  JUNCTION     25.91    27.02     0  01:14      0.0258       0.027       0.123
  P78                  JUNCTION     40.39   230.06     0  01:04      0.0386       0.232       0.069
  P79                  JUNCTION     44.03   273.23     0  01:04      0.0427       0.275       0.016
  P80                  JUNCTION     54.41   190.66     0  01:04       0.052       0.194       0.082
  P81                  JUNCTION     43.26    43.26     0  01:04      0.0414      0.0414       0.059
  P82                  JUNCTION     49.84    96.01     0  01:03      0.0516         0.1       0.047
  P83                  JUNCTION     43.59    43.59     0  01:04      0.0489      0.0489       0.104
  P60                  JUNCTION     22.82    76.65     0  01:04      0.0284      0.0857       0.218
  P62A                 JUNCTION      0.00     1.46     0  00:59           0    0.000294       8.765
  P61A                 JUNCTION      0.00     1.25     0  00:59           0    0.000219      10.784
  P90                  JUNCTION     50.12    50.12     0  01:04      0.0534      0.0534       0.033
  P91                  JUNCTION      0.00    50.11     0  01:04           0      0.0534       0.081
  P92                  JUNCTION     54.94    54.94     0  01:04      0.0564      0.0564       0.028
  P93                  JUNCTION      0.00   104.72     0  01:04           0        0.11       0.173
  P94                  JUNCTION     33.70    33.70     0  01:04      0.0366      0.0366       0.036
  P95                  JUNCTION      0.00   136.77     0  01:04           0       0.146       0.137
  P96                  JUNCTION     48.76    48.76     0  01:04      0.0491      0.0491       0.029
  P97                  JUNCTION      0.00   184.12     0  01:04           0       0.195       0.094
  E1                   OUTFALL       0.00  1764.02     0  01:04           0        2.12       0.000
  E32                  OUTFALL       0.00  1204.48     0  01:04           0        1.41       0.000
  E33                  OUTFALL       0.00   183.95     0  01:04           0       0.195       0.000
  
  
  **********************
  Node Surcharge Summary
  **********************
  
  Surcharging occurs when water rises above the top of the highest conduit.
  ---------------------------------------------------------------------
                                               Max. Height   Min. Depth
                                   Hours       Above Crown    Below Rim
  Node                 Type      Surcharged         Meters       Meters
  ---------------------------------------------------------------------
  P1                   JUNCTION        0.07          0.600        0.000
  P2                   JUNCTION        0.10          0.606        0.000
  P3                   JUNCTION        0.12          0.629        0.000
  P4                   JUNCTION        0.14          0.794        0.000
  P5                   JUNCTION        0.16          0.850        0.000
  P6                   JUNCTION        0.17          1.018        0.000
  P7                   JUNCTION        0.18          0.965        0.000
  P8                   JUNCTION        0.16          0.605        0.000
  P9                   JUNCTION        0.20          0.658        0.000
  P20                  JUNCTION        0.02          0.411        0.189
  P24                  JUNCTION        0.05          0.201        0.604
  P31                  JUNCTION        1.59          0.143        1.257
  P41                  JUNCTION        0.02          0.675        0.000
  P42                  JUNCTION        0.05          0.720        0.000
  P43                  JUNCTION        0.02          0.613        0.000
  P44                  JUNCTION        0.03          0.613        0.000
  P45                  JUNCTION        0.03          0.606        0.000
  P46                  JUNCTION        0.05          0.664        0.000
  P47                  JUNCTION        0.03          0.604        0.000
  P48                  JUNCTION        0.07          0.605        0.000
  P49                  JUNCTION        0.05          0.563        0.397
  P50                  JUNCTION        0.09          0.684        0.276
  P65                  JUNCTION        0.06          0.032        0.738
  
  
  *********************
  Node Flooding Summary
  *********************
  
  Flooding refers to all water that overflows a node, whether it ponds or not.
  --------------------------------------------------------------------------
                                                             Total   Maximum
                                 Maximum   Time of Max       Flood    Ponded
                        Hours       Rate    Occurrence      Volume     Depth
  Node                 Flooded       LPS   days hr:min    10^6 ltr    Meters
  --------------------------------------------------------------------------
  P1                      0.01     10.26      0  01:03       0.000     0.000
  P2                      0.01     17.12      0  01:03       0.000     0.006
  P3                      0.03     48.25      0  01:02       0.000     0.049
  P4                      0.09     54.49      0  01:02       0.002     0.214
  P5                      0.09     26.28      0  01:01       0.000     0.250
  P6                      0.13     46.20      0  01:01       0.003     0.418
  P7                      0.13     53.85      0  01:01       0.002     0.365
  P8                      0.01     29.93      0  01:01       0.000     0.005
  P9                      0.06     13.86      0  01:04       0.001     0.058
  P42                     0.02     44.33      0  01:04       0.001     0.045
  P43                     0.01     40.81      0  01:03       0.000     0.013
  P44                     0.01     48.17      0  01:03       0.000     0.013
  P45                     0.01     34.31      0  01:03       0.000     0.006
  P46                     0.03     36.51      0  01:03       0.001     0.064
  P47                     0.01      9.22      0  01:03       0.000     0.004
  P48                     0.01     21.90      0  01:03       0.000     0.005
  
  
  ***********************
  Outfall Loading Summary
  ***********************
  
  -----------------------------------------------------------
                         Flow       Avg       Max       Total
                         Freq      Flow      Flow      Volume
  Outfall Node           Pcnt       LPS       LPS    10^6 ltr
  -----------------------------------------------------------
  E1                    95.58    323.63   1764.02       2.116
  E32                   95.80    215.71   1204.48       1.413
  E33                   95.52     29.83    183.95       0.195
  -----------------------------------------------------------
  System                95.63    569.17   3149.08       3.724
  
  
  
  ********************
  Link Flow Summary
  ********************
  
  -----------------------------------------------------------------------------
                                 Maximum  Time of Max   Maximum    Max/    Max/
                                  |Flow|   Occurrence   |Veloc|    Full    Full
  Link                 Type          LPS  days hr:min     m/sec    Flow   Depth
  -----------------------------------------------------------------------------
  G1                   CONDUIT     66.58     0  01:03      1.09    0.21    1.00
  G2                   CONDUIT    115.85     0  01:03      1.17    0.55    1.00
  G3                   CONDUIT     92.92     0  01:02      0.80    0.32    1.00
  G4                   CONDUIT    163.71     0  01:03      1.45    0.78    1.00
  G5                   CONDUIT     73.01     0  01:01      0.74    0.22    1.00
  G6                   CONDUIT    241.00     0  01:04      1.92    1.12    1.00
  G7                   CONDUIT    272.96     0  01:05      2.17    1.32    1.00
  G8                   CONDUIT     64.67     0  01:09      0.66    0.20    1.00
  G38                  CONDUIT     24.15     0  01:04      0.94    0.07    0.26
  G39                  CONDUIT     71.94     0  01:04      0.83    0.24    0.67
  G40                  CONDUIT     75.46     0  01:05      0.92    0.13    1.00
  G41                  CONDUIT    182.76     0  01:03      1.50    1.42    1.00
  G42                  CONDUIT     61.72     0  01:05      0.77    0.19    1.00
  G43                  CONDUIT    235.67     0  01:03      2.02    0.99    1.00
  G44                  CONDUIT     64.09     0  01:03      0.79    0.20    1.00
  G45                  CONDUIT    315.32     0  01:05      2.65    1.07    1.00
  G46                  CONDUIT     66.66     0  01:03      0.88    0.20    1.00
  G47                  CONDUIT    408.27     0  01:04      3.38    1.03    1.00
  G48                  CONDUIT     29.39     0  01:02      0.48    0.09    1.00
  G49                  CONDUIT    451.94     0  01:04      4.02    1.12    0.87
  G50                  CONDUIT     38.87     0  01:04      0.79    0.12    0.48
  G51                  CONDUIT    527.11     0  01:04      5.42    0.88    0.72
  G52                  CONDUIT     80.81     0  01:04      1.25    0.25    0.54
  G53                  CONDUIT    655.95     0  01:04      3.89    0.46    0.58
  G54                  CONDUIT    680.28     0  01:04      3.67    0.80    0.62
  G56                  CONDUIT    679.52     0  01:04      3.89    0.62    0.60
  G16                  CONDUIT     59.03     0  01:04      1.15    0.18    0.43
  G17                  CONDUIT    118.56     0  01:04      1.27    0.57    0.77
  G18                  CONDUIT     63.44     0  01:04      0.91    0.12    0.63
  G19                  CONDUIT    213.03     0  01:04      1.70    1.01    1.00
  G20                  CONDUIT     35.66     0  01:04      1.40    0.11    0.54
  G21                  CONDUIT     41.08     0  01:04      0.39    0.12    0.89
  G22                  CONDUIT     30.95     0  01:04      0.40    0.06    0.70
  G23                  CONDUIT    251.86     0  01:04      2.05    1.21    0.94
  G24                  CONDUIT     50.68     0  01:04      0.73    0.17    0.62
  G25                  CONDUIT    319.22     0  01:04      2.05    0.52    0.55
  G26                  CONDUIT     35.49     0  01:04      0.36    0.22    0.80
  G27                  CONDUIT    378.08     0  01:04      2.41    0.62    0.55
  G28                  CONDUIT     43.47     0  01:03      0.71    0.13    0.54
  G9                   CONDUIT    345.42     0  01:05      2.76    1.66    1.00
  G10                  CONDUIT     73.96     0  01:03      0.81    0.23    0.81
  G11                  CONDUIT    415.48     0  01:04      2.08    0.67    0.69
  G12                  CONDUIT     50.85     0  01:02      0.63    0.16    0.85
  G13                  CONDUIT    497.06     0  01:04      2.07    0.78    0.79
  G14                  CONDUIT    497.35     0  01:04      2.80    1.56    0.60
  G29                  CONDUIT    463.19     0  01:04      3.09    0.54    0.52
  G15                  CONDUIT    497.18     0  01:04      3.29    0.28    0.53
  G30                  CONDUIT     24.33     0  01:04      0.33    0.05    0.57
  G31                  CONDUIT    982.75     0  01:04      4.42    0.51    0.46
  G33                  CONDUIT   1020.53     0  01:04      6.01    0.32    0.37
  G34                  CONDUIT     29.05     0  01:05      0.65    0.09    0.49
  G35                  CONDUIT   1040.03     0  01:04      6.36    0.26    0.36
  G36                  CONDUIT     53.24     0  01:04      0.98    0.16    0.51
  G37                  CONDUIT   1086.01     0  01:04      6.22    0.30    0.39
  G32                  CONDUIT     44.97     0  01:05      0.79    0.14    0.60
  G57                  CONDUIT   1764.02     0  01:04      4.70    0.83    0.70
  G58                  CONDUIT     53.85     0  01:04      1.58    0.10    0.32
  G59                  CONDUIT     75.75     0  01:04      1.53    0.36    0.42
  G61                  CONDUIT    107.69     0  01:04      1.42    0.51    0.58
  G63                  CONDUIT    155.29     0  01:04      1.73    0.76    0.67
  G64                  CONDUIT    174.38     0  01:04      1.62    0.81    0.80
  G66                  CONDUIT    235.33     0  01:04      1.90    1.76    0.96
  G65                  CONDUIT    442.22     0  01:04      2.56    0.70    0.59
  G67                  CONDUIT    467.47     0  01:04      3.30    0.58    0.50
  G68                  CONDUIT     57.57     0  01:04      1.04    0.16    0.47
  G69                  CONDUIT    577.35     0  01:04      4.74    0.41    0.45
  G70                  CONDUIT     54.67     0  01:04      1.10    0.16    0.47
  G71                  CONDUIT    663.79     0  01:04      5.14    0.41    0.47
  G72                  CONDUIT     67.78     0  01:04      1.15    0.19    0.51
  G73                  CONDUIT    779.73     0  01:04      5.14    0.48    0.53
  G74                  CONDUIT    807.11     0  01:04      4.02    0.58    0.67
  G75                  CONDUIT    809.65     0  01:04      2.68    0.61    0.58
  G76                  CONDUIT    812.46     0  01:04      2.46    0.61    0.63
  G78                  CONDUIT    840.33     0  01:04      2.25    0.64    0.71
  G77                  CONDUIT     37.33     0  01:04      0.46    0.04    0.74
  G60                  CONDUIT      1.25     0  00:59      0.07    0.01    0.49
  G62                  CONDUIT      1.46     0  00:59      0.06    0.01    0.63
  G79                  CONDUIT     46.71     0  01:04      1.30    0.42    0.34
  G80                  CONDUIT     93.19     0  01:04      2.68    0.17    0.32
  G81                  CONDUIT     43.23     0  01:04      1.00    0.39    0.38
  G82                  CONDUIT    189.86     0  01:04      3.22    0.28    0.48
  G83                  CONDUIT    229.47     0  01:04      3.71    0.65    0.49
  G84                  CONDUIT    273.13     0  01:04      2.91    0.34    0.70
  G85                  CONDUIT      0.31     0  01:00      0.08    0.00    0.11
  G86                  CONDUIT     25.36     0  01:04      1.42    0.04    0.20
  G87                  CONDUIT     86.07     0  01:04      1.94    0.15    0.38
  G88                  CONDUIT    117.25     0  01:04      1.82    0.52    0.51
  G89                  CONDUIT    117.16     0  01:04      1.64    0.19    0.34
  G90                  CONDUIT     50.11     0  01:04      2.01    0.14    0.25
  G91                  CONDUIT     49.84     0  01:04      1.18    0.13    0.37
  G92                  CONDUIT     54.91     0  01:04      1.24    0.16    0.38
  G94                  CONDUIT     33.66     0  01:04      0.82    0.10    0.37
  G93                  CONDUIT    103.87     0  01:04      1.61    0.49    0.51
  G95                  CONDUIT    136.54     0  01:04      2.02    0.55    0.53
  G96                  CONDUIT     48.76     0  01:04      1.15    0.14    0.39
  G152                 CONDUIT   1204.48     0  01:04      2.98    0.91    0.75
  G153                 CONDUIT    183.95     0  01:04      2.72    0.55    0.53
  
  
  ***************************
  Flow Classification Summary
  ***************************
  
  -------------------------------------------------------------------------------------
                      Adjusted    ---------- Fraction of Time in Flow Class ---------- 
                       /Actual         Up    Down  Sub   Sup   Up    Down  Norm  Inlet 
  Conduit               Length    Dry  Dry   Dry   Crit  Crit  Crit  Crit  Ltd   Ctrl  
  -------------------------------------------------------------------------------------
  G1                      1.00   0.04  0.00  0.00  0.16  0.81  0.00  0.00  0.86  0.00
  G2                      1.00   0.04  0.00  0.00  0.92  0.04  0.00  0.00  0.86  0.00
  G3                      1.00   0.04  0.00  0.00  0.94  0.02  0.00  0.00  0.86  0.00
  G4                      1.00   0.04  0.00  0.00  0.14  0.83  0.00  0.00  0.86  0.00
  G5                      1.00   0.04  0.00  0.00  0.94  0.02  0.00  0.00  0.85  0.00
  G6                      1.00   0.04  0.00  0.00  0.11  0.85  0.00  0.00  0.70  0.00
  G7                      1.00   0.04  0.00  0.00  0.14  0.83  0.00  0.00  0.75  0.00
  G8                      1.00   0.04  0.00  0.00  0.93  0.03  0.00  0.00  0.81  0.00
  G38                     1.00   0.04  0.00  0.00  0.55  0.42  0.00  0.00  0.96  0.00
  G39                     1.00   0.04  0.00  0.00  0.94  0.02  0.00  0.00  0.96  0.00
  G40                     1.00   0.04  0.00  0.00  0.94  0.03  0.00  0.00  0.95  0.00
  G41                     1.00   0.04  0.00  0.00  0.96  0.00  0.00  0.00  0.00  0.00
  G42                     1.00   0.04  0.00  0.00  0.94  0.03  0.00  0.00  0.90  0.00
  G43                     1.00   0.04  0.00  0.00  0.06  0.91  0.00  0.00  0.82  0.00
  G44                     1.00   0.04  0.00  0.00  0.93  0.03  0.00  0.00  0.89  0.00
  G45                     1.00   0.04  0.00  0.00  0.04  0.92  0.00  0.00  0.44  0.00
  G46                     1.00   0.04  0.00  0.00  0.93  0.03  0.00  0.00  0.90  0.00
  G47                     1.00   0.04  0.00  0.00  0.04  0.92  0.00  0.00  0.83  0.00
  G48                     1.00   0.04  0.00  0.00  0.95  0.01  0.00  0.00  0.86  0.00
  G49                     1.00   0.04  0.00  0.00  0.00  0.96  0.00  0.00  0.02  0.00
  G50                     1.00   0.04  0.00  0.00  0.93  0.03  0.00  0.00  0.94  0.00
  G51                     1.00   0.04  0.00  0.00  0.00  0.96  0.00  0.00  0.89  0.00
  G52                     1.00   0.04  0.00  0.00  0.89  0.07  0.00  0.00  0.90  0.00
  G53                     1.00   0.04  0.00  0.00  0.00  0.96  0.00  0.00  0.95  0.00
  G54                     1.00   0.04  0.00  0.00  0.00  0.96  0.00  0.00  0.11  0.00
  G56                     1.00   0.04  0.00  0.00  0.00  0.07  0.00  0.89  0.06  0.00
  G16                     1.00   0.04  0.00  0.00  0.01  0.95  0.00  0.00  0.86  0.00
  G17                     1.00   0.04  0.00  0.00  0.71  0.25  0.00  0.00  0.93  0.00
  G18                     1.00   0.04  0.00  0.00  0.94  0.03  0.00  0.00  0.95  0.00
  G19                     1.00   0.04  0.00  0.00  0.08  0.89  0.00  0.00  0.72  0.00
  G20                     1.00   0.04  0.00  0.00  0.03  0.93  0.00  0.00  0.06  0.00
  G21                     1.00   0.04  0.00  0.00  0.96  0.00  0.00  0.00  0.91  0.00
  G22                     1.00   0.04  0.00  0.00  0.94  0.02  0.00  0.00  0.95  0.00
  G23                     1.00   0.04  0.00  0.00  0.00  0.00  0.00  0.96  0.00  0.00
  G24                     1.00   0.04  0.00  0.00  0.94  0.02  0.00  0.00  0.88  0.00
  G25                     1.00   0.04  0.00  0.00  0.01  0.95  0.00  0.00  0.79  0.00
  G26                     1.00   0.04  0.00  0.00  0.96  0.01  0.00  0.00  0.22  0.00
  G27                     1.00   0.04  0.00  0.00  0.02  0.95  0.00  0.00  0.18  0.00
  G28                     1.00   0.04  0.00  0.00  0.94  0.03  0.00  0.00  0.93  0.00
  G9                      1.00   0.04  0.00  0.00  0.00  0.00  0.00  0.96  0.00  0.00
  G10                     1.00   0.04  0.00  0.00  0.94  0.02  0.00  0.00  0.84  0.00
  G11                     1.00   0.04  0.00  0.00  0.02  0.95  0.00  0.00  0.75  0.00
  G12                     1.00   0.04  0.00  0.00  0.94  0.02  0.00  0.00  0.82  0.00
  G13                     1.00   0.04  0.00  0.00  0.18  0.78  0.00  0.00  0.46  0.00
  G14                     1.00   0.04  0.00  0.00  0.02  0.94  0.00  0.00  0.00  0.00
  G29                     1.00   0.04  0.00  0.00  0.00  0.00  0.00  0.96  0.00  0.00
  G15                     1.00   0.04  0.01  0.00  0.03  0.93  0.00  0.00  0.96  0.00
  G30                     1.00   0.04  0.13  0.00  0.00  0.00  0.84  0.00  0.00  0.00
  G31                     1.00   0.04  0.00  0.00  0.02  0.95  0.00  0.00  0.02  0.00
  G33                     1.00   0.04  0.00  0.00  0.00  0.96  0.00  0.00  0.00  0.00
  G34                     1.00   0.04  0.00  0.00  0.92  0.04  0.00  0.00  0.88  0.00
  G35                     1.00   0.04  0.00  0.00  0.00  0.96  0.00  0.00  0.94  0.00
  G36                     1.00   0.04  0.00  0.00  0.91  0.06  0.00  0.00  0.92  0.00
  G37                     1.00   0.04  0.00  0.00  0.00  0.03  0.00  0.93  0.02  0.00
  G32                     1.00   0.04  0.00  0.00  0.92  0.04  0.00  0.00  0.86  0.00
  G57                     1.00   0.04  0.00  0.00  0.00  0.96  0.00  0.00  0.27  0.00
  G58                     1.00   0.04  0.00  0.00  0.00  0.96  0.00  0.00  0.95  0.00
  G59                     1.00   0.04  0.00  0.00  0.00  0.00  0.00  0.96  0.00  0.00
  G61                     1.00   0.04  0.00  0.00  0.02  0.94  0.00  0.00  0.91  0.00
  G63                     1.00   0.04  0.00  0.00  0.01  0.96  0.00  0.00  0.71  0.00
  G64                     1.00   0.04  0.00  0.00  0.54  0.42  0.00  0.00  0.94  0.00
  G66                     1.00   0.04  0.00  0.00  0.57  0.39  0.00  0.00  0.04  0.00
  G65                     1.00   0.04  0.00  0.00  0.01  0.95  0.00  0.00  0.34  0.00
  G67                     1.00   0.04  0.00  0.00  0.02  0.95  0.00  0.00  0.02  0.00
  G68                     1.00   0.04  0.00  0.00  0.90  0.07  0.00  0.00  0.92  0.00
  G69                     1.00   0.04  0.00  0.00  0.00  0.96  0.00  0.00  0.08  0.00
  G70                     1.00   0.04  0.00  0.00  0.90  0.06  0.00  0.00  0.92  0.00
  G71                     1.00   0.04  0.00  0.00  0.00  0.96  0.00  0.00  0.95  0.00
  G72                     1.00   0.04  0.00  0.00  0.90  0.07  0.00  0.00  0.93  0.00
  G73                     1.00   0.04  0.00  0.00  0.00  0.96  0.00  0.00  0.94  0.00
  G74                     1.00   0.04  0.00  0.00  0.00  0.96  0.00  0.00  0.84  0.00
  G75                     1.00   0.04  0.00  0.00  0.01  0.96  0.00  0.00  0.41  0.00
  G76                     1.00   0.04  0.00  0.00  0.01  0.95  0.00  0.00  0.52  0.00
  G78                     1.00   0.04  0.00  0.00  0.10  0.86  0.00  0.00  0.37  0.00
  G77                     1.00   0.04  0.00  0.00  0.94  0.03  0.00  0.00  0.76  0.00
  G60                     1.00   0.04  0.02  0.00  0.94  0.00  0.00  0.00  0.00  0.00
  G62                     1.00   0.04  0.03  0.00  0.94  0.00  0.00  0.00  0.00  0.00
  G79                     1.00   0.04  0.00  0.00  0.10  0.87  0.00  0.00  0.02  0.00
  G80                     1.00   0.04  0.00  0.00  0.00  0.96  0.00  0.00  0.96  0.00
  G81                     1.00   0.04  0.00  0.00  0.95  0.01  0.00  0.00  0.00  0.00
  G82                     1.00   0.04  0.00  0.00  0.00  0.96  0.00  0.00  0.96  0.00
  G83                     1.00   0.04  0.00  0.00  0.00  0.96  0.00  0.00  0.09  0.00
  G84                     1.00   0.04  0.00  0.00  0.38  0.58  0.00  0.00  0.95  0.00
  G85                     1.00   0.04  0.46  0.00  0.51  0.00  0.00  0.00  0.30  0.00
  G86                     1.00   0.04  0.00  0.00  0.01  0.96  0.00  0.00  0.96  0.00
  G87                     1.00   0.04  0.00  0.00  0.00  0.96  0.00  0.00  0.96  0.00
  G88                     1.00   0.04  0.00  0.00  0.00  0.00  0.00  0.96  0.00  0.00
  G89                     1.00   0.04  0.00  0.00  0.00  0.03  0.00  0.93  0.01  0.00
  G90                     1.00   0.04  0.00  0.00  0.00  0.96  0.00  0.00  0.05  0.00
  G91                     1.00   0.04  0.00  0.00  0.01  0.95  0.00  0.00  0.96  0.00
  G92                     1.00   0.04  0.00  0.00  0.00  0.96  0.00  0.00  0.89  0.00
  G94                     1.00   0.04  0.00  0.00  0.93  0.03  0.00  0.00  0.94  0.00
  G93                     1.00   0.04  0.00  0.00  0.01  0.95  0.00  0.00  0.83  0.00
  G95                     1.00   0.04  0.00  0.00  0.02  0.94  0.00  0.00  0.27  0.00
  G96                     1.00   0.04  0.00  0.00  0.81  0.15  0.00  0.00  0.90  0.00
  G152                    1.00   0.04  0.00  0.00  0.00  0.96  0.00  0.00  0.30  0.00
  G153                    1.00   0.04  0.00  0.00  0.00  0.96  0.00  0.00  0.21  0.00
  
  
  *************************
  Conduit Surcharge Summary
  *************************
  
  ----------------------------------------------------------------------------
                                                           Hours        Hours 
                         --------- Hours Full --------   Above Full   Capacity
  Conduit                Both Ends  Upstream  Dnstream   Normal Flow   Limited
  ----------------------------------------------------------------------------
  G1                          0.07      0.07      0.10      0.01         0.01
  G2                          0.10      0.10      0.14      0.01         0.01
  G3                          0.12      0.12      0.14      0.01         0.01
  G4                          0.14      0.14      0.17      0.01         0.01
  G5                          0.16      0.16      0.17      0.01         0.01
  G6                          0.17      0.17      0.18      0.12         0.12
  G7                          0.18      0.18      0.20      0.17         0.17
  G8                          0.16      0.16      0.20      0.01         0.01
  G39                         0.01      0.01      0.05      0.01         0.01
  G40                         0.02      0.02      0.05      0.01         0.01
  G41                         0.03      0.05      0.03      0.13         0.02
  G42                         0.02      0.02      0.03      0.01         0.01
  G43                         0.03      0.03      0.05      0.01         0.01
  G44                         0.03      0.03      0.05      0.01         0.01
  G45                         0.05      0.05      0.07      0.04         0.03
  G46                         0.03      0.03      0.07      0.01         0.01
  G47                         0.07      0.07      0.09      0.03         0.03
  G48                         0.05      0.05      0.09      0.01         0.01
  G49                         0.01      0.09      0.01      0.10         0.01
  G17                         0.01      0.01      0.02      0.01         0.01
  G18                         0.01      0.01      0.02      0.01         0.01
  G19                         0.02      0.02      0.05      0.01         0.01
  G21                         0.01      0.01      0.05      0.01         0.01
  G22                         0.01      0.01      0.05      0.01         0.01
  G23                         0.01      0.05      0.01      0.09         0.01
  G9                          0.01      0.20      0.01      0.21         0.01
  G12                         0.01      0.01      0.12      0.01         0.01
  G14                         0.01      0.01      0.01      0.18         0.01
  G30                         0.01      0.01      1.59      0.01         0.01
  G66                         0.01      0.06      0.01      0.27         0.01
  G84                         0.01      0.01      0.18      0.01         0.01
  

  Analysis begun on:  Thu Aug 21 12:33:46 2025
  Analysis ended on:  Thu Aug 21 12:33:54 2025
  Total elapsed time: 00:00:08