
  EPA STORM WATER MANAGEMENT MODEL - VERSION 5.2 (Build 5.2.4)
  PYSWMM TOOLKIT API - VERSION v1.0 (2023-11-27)
  ------------------------------------------------------------

  test 
  
  ****************
  Analysis Options
  ****************
  Flow Units ............... LPS
  Process Models:
    Rainfall/Runoff ........ YES
    RDII ................... NO
    Snowmelt ............... NO
    Groundwater ............ NO
    Flow Routing ........... YES
    Ponding Allowed ........ YES
    Water Quality .......... NO
  Infiltration Method ...... CURVE_NUMBER
  Flow Routing Method ...... DYNWAVE
  Surcharge Method ......... EXTRAN
  Starting Date ............ 11/13/2024 00:00:00
  Ending Date .............. 11/13/2024 01:55:00
  Antecedent Dry Days ...... 7.0
  Report Time Step ......... 00:05:00
  Wet Time Step ............ 00:01:00
  Dry Time Step ............ 01:00:00
  Routing Time Step ........ 0.60 sec
  Variable Time Step ....... YES
  Maximum Trials ........... 8
  Number of Threads ........ 1
  Head Tolerance ........... 0.001500 m
  
  
  **************************        Volume         Depth
  Runoff Quantity Continuity     hectare-m            mm
  **************************     ---------       -------
  Total Precipitation ......         0.571        61.587
  Evaporation Loss .........         0.000         0.000
  Infiltration Loss ........         0.024         2.599
  Surface Runoff ...........         0.534        57.642
  Final Storage ............         0.011         1.179
  Continuity Error (%) .....         0.272
  
  
  **************************        Volume        Volume
  Flow Routing Continuity        hectare-m      10^6 ltr
  **************************     ---------     ---------
  Dry Weather Inflow .......         0.000         0.000
  Wet Weather Inflow .......         0.533         5.334
  Groundwater Inflow .......         0.000         0.000
  RDII Inflow ..............         0.000         0.000
  External Inflow ..........         0.000         0.000
  External Outflow .........         0.529         5.289
  Flooding Loss ............         0.000         0.000
  Evaporation Loss .........         0.000         0.000
  Exfiltration Loss ........         0.000         0.000
  Initial Stored Volume ....         0.000         0.000
  Final Stored Volume ......         0.005         0.046
  Continuity Error (%) .....        -0.030
  
  
  *************************
  Highest Continuity Errors
  *************************
  Node P31 (1.30%)
  
  
  ***************************
  Time-Step Critical Elements
  ***************************
  None
  
  
  ********************************
  Highest Flow Instability Indexes
  ********************************
  Link G66 (16)
  Link G65 (5)
  Link G79 (5)
  Link G8 (4)
  Link G30 (4)
  
  
  *********************************
  Most Frequent Nonconverging Nodes
  *********************************
  Node E1 (3.17%)
  Node E32 (3.17%)
  Node E33 (3.17%)
  Node P24 (0.46%)
  Node P1 (0.37%)
  
  
  *************************
  Routing Time Step Summary
  *************************
  Minimum Time Step           :     0.40 sec
  Average Time Step           :     0.50 sec
  Maximum Time Step           :     0.60 sec
  % of Time in Steady State   :     0.00
  Average Iterations per Step :     2.31
  % of Steps Not Converging   :     3.17
  Time Step Frequencies       :
      0.600 -  0.579 sec      :    99.05 %
      0.579 -  0.558 sec      :     0.04 %
      0.558 -  0.538 sec      :     0.06 %
      0.538 -  0.519 sec      :     0.03 %
      0.519 -  0.500 sec      :     0.82 %
  
  
  ***************************
  Subcatchment Runoff Summary
  ***************************
  
  ------------------------------------------------------------------------------------------------------------------------------
                            Total      Total      Total      Total     Imperv       Perv      Total       Total     Peak  Runoff
                           Precip      Runon       Evap      Infil     Runoff     Runoff     Runoff      Runoff   Runoff   Coeff
  Subcatchment                 mm         mm         mm         mm         mm         mm         mm    10^6 ltr      LPS
  ------------------------------------------------------------------------------------------------------------------------------
  B140                      61.59       0.00       0.00       2.60      53.54       4.71      57.78        0.04    31.36   0.938
  B139                      61.59       0.00       0.00       2.60      53.54       4.71      57.78        0.04    30.98   0.938
  B141                      61.59       0.00       0.00       2.60      53.70       4.74      57.97        0.02    14.94   0.941
  B142                      61.59       0.00       0.00       2.60      53.70       4.74      57.97        0.02    14.94   0.941
  B144                      61.59       0.00       0.00       2.60      53.70       4.74      57.97        0.02    14.94   0.941
  B145                      61.59       0.00       0.00       2.60      53.70       4.74      57.97        0.02    14.94   0.941
  B146                      61.59       0.00       0.00       2.60      53.70       4.74      57.97        0.02    14.94   0.941
  B147                      61.59       0.00       0.00       2.60      53.70       4.74      57.97        0.02    14.94   0.941
  B148                      61.59       0.00       0.00       2.60      53.70       4.74      57.97        0.02    14.94   0.941
  B149                      61.59       0.00       0.00       2.60      53.49       4.70      57.72        0.04    29.26   0.937
  B108                      61.59       0.00       0.00       2.60      53.43       4.69      57.65        0.02    14.90   0.936
  B42                       61.59       0.00       0.00       2.60      53.38       4.68      57.60        0.02    14.88   0.935
  B40                       61.59       0.00       0.00       2.60      53.38       4.68      57.60        0.02    14.88   0.935
  B38                       61.59       0.00       0.00       2.60      53.38       4.68      57.60        0.02    14.88   0.935
  B36                       61.59       0.00       0.00       2.60      53.38       4.68      57.60        0.02    14.88   0.935
  B34                       61.59       0.00       0.00       2.60      53.38       4.68      57.60        0.02    14.88   0.935
  B32                       61.59       0.00       0.00       2.60      53.38       4.68      57.60        0.02    14.88   0.935
  B30                       61.59       0.00       0.00       2.60      53.38       4.68      57.60        0.02    14.88   0.935
  B9                        61.59       0.00       0.00       2.60      53.38       4.68      57.60        0.02    14.88   0.935
  B7                        61.59       0.00       0.00       2.60      53.38       4.68      58.07        0.02    15.03   0.943
  B5                        61.59       0.00       0.00       2.60      53.38       4.68      57.60        0.02    14.88   0.935
  B3                        61.59       0.00       0.00       2.60      53.38       4.68      57.60        0.02    14.88   0.935
  B1                        61.59       0.00       0.00       2.60      53.38       4.68      58.07        0.02    15.03   0.943
  B23                       61.59       0.00       0.00       2.60      53.38       4.68      58.07        0.02    15.03   0.943
  B21                       61.59       0.00       0.00       2.60      53.38       4.68      57.60        0.02    14.88   0.935
  B19                       61.59       0.00       0.00       2.60      53.38       4.68      57.60        0.02    14.88   0.935
  B17                       61.59       0.00       0.00       2.60      53.38       4.68      57.60        0.02    14.88   0.935
  B15                       61.59       0.00       0.00       2.60      53.38       4.68      57.60        0.02    14.88   0.935
  B13                       61.59       0.00       0.00       2.60      53.38       4.68      57.60        0.02    14.88   0.935
  B11                       61.59       0.00       0.00       2.60      53.38       4.68      57.60        0.02    14.88   0.935
  B129                      61.59       0.00       0.00       2.60      53.70       4.74      57.97        0.02    14.94   0.941
  B127                      61.59       0.00       0.00       2.60      53.70       4.74      57.97        0.02    14.94   0.941
  B125                      61.59       0.00       0.00       2.60      53.70       4.74      57.97        0.02    14.94   0.941
  B123                      61.59       0.00       0.00       2.60      53.60       4.72      57.85        0.02    14.93   0.939
  B121                      61.59       0.00       0.00       2.60      53.60       4.72      57.85        0.02    14.93   0.939
  B120                      61.59       0.00       0.00       2.60      53.60       4.72      57.85        0.02    14.93   0.939
  B119                      61.59       0.00       0.00       2.60      53.60       4.72      57.85        0.02    14.93   0.939
  B113                      61.59       0.00       0.00       2.60      53.43       4.69      57.65        0.02    14.90   0.936
  B111                      61.59       0.00       0.00       2.60      53.43       4.69      57.65        0.02    14.90   0.936
  B109                      61.59       0.00       0.00       2.60      53.43       4.69      57.65        0.02    14.90   0.936
  B107                      61.59       0.00       0.00       2.60      53.43       4.69      57.65        0.02    14.90   0.936
  B105                      61.59       0.00       0.00       2.60      53.43       4.69      57.65        0.02    14.90   0.936
  B103                      61.59       0.00       0.00       2.60      53.43       4.69      57.65        0.02    14.90   0.936
  B101                      61.59       0.00       0.00       2.60      53.43       4.69      57.65        0.02    14.90   0.936
  BB118                     61.59       0.00       0.00       2.60      53.44       4.69      57.66        0.04    29.23   0.936
  B99                       61.59       0.00       0.00       2.60      53.13       4.64      57.30        0.04    28.90   0.930
  B28                       61.59       0.00       0.00       2.60      53.06       4.62      57.22        0.04    28.77   0.929
  B115                      61.59       0.00       0.00       2.60      53.43       4.69      57.65        0.02    14.90   0.936
  B22                       61.59       0.00       0.00       2.60      53.38       4.68      57.60        0.02    14.88   0.935
  B20                       61.59       0.00       0.00       2.60      53.38       4.68      57.60        0.02    14.88   0.935
  B18                       61.59       0.00       0.00       2.60      53.38       4.68      57.60        0.02    14.88   0.935
  B16                       61.59       0.00       0.00       2.60      53.38       4.68      57.60        0.02    14.88   0.935
  B14                       61.59       0.00       0.00       2.60      53.38       4.68      57.60        0.02    14.88   0.935
  B12                       61.59       0.00       0.00       2.60      53.38       4.68      57.60        0.02    14.88   0.935
  B10                       61.59       0.00       0.00       2.60      53.38       4.68      57.60        0.02    14.88   0.935
  B8                        61.59       0.00       0.00       2.60      53.38       4.68      58.07        0.02    15.03   0.943
  B6                        61.59       0.00       0.00       2.60      53.38       4.68      57.60        0.02    14.88   0.935
  B4                        61.59       0.00       0.00       2.60      53.38       4.68      57.60        0.02    14.88   0.935
  B2                        61.59       0.00       0.00       2.60      53.38       4.68      57.60        0.02    14.88   0.935
  B29                       61.59       0.00       0.00       2.60      53.38       4.68      57.60        0.02    14.88   0.935
  B31                       61.59       0.00       0.00       2.60      53.38       4.68      57.60        0.02    14.88   0.935
  B33                       61.59       0.00       0.00       2.60      53.38       4.68      57.60        0.02    14.88   0.935
  B35.                      61.59       0.00       0.00       2.60      53.38       4.68      57.60        0.02    14.88   0.935
  B37                       61.59       0.00       0.00       2.60      53.38       4.68      57.60        0.02    14.88   0.935
  B39                       61.59       0.00       0.00       2.60      53.38       4.68      58.07        0.02    15.03   0.943
  B41                       61.59       0.00       0.00       2.60      53.38       4.68      57.60        0.02    14.88   0.935
  B43                       61.59       0.00       0.00       2.60      53.38       4.68      57.60        0.02    14.88   0.935
  B27                       61.59       0.00       0.00       2.60      53.06       4.62      57.22        0.04    28.77   0.929
  B25                       61.59       0.00       0.00       2.60      53.06       4.62      57.22        0.04    28.77   0.929
  B24                       61.59       0.00       0.00       2.60      53.06       4.62      57.68        0.04    29.04   0.937
  B67                       61.59       0.00       0.00       2.60      53.06       4.62      57.22        0.04    28.77   0.929
  B68                       61.59       0.00       0.00       2.60      53.06       4.62      57.22        0.04    28.77   0.929
  B98                       61.59       0.00       0.00       2.60      53.13       4.64      57.30        0.04    28.90   0.930
  B97                       61.59       0.00       0.00       2.60      52.89       4.59      57.02        0.04    28.41   0.926
  B46                       61.59       0.00       0.00       2.60      53.28       4.66      57.48        0.02    19.78   0.933
  B45                       61.59       0.00       0.00       2.60      53.00       4.61      57.14        0.04    33.40   0.928
  B47                       61.59       0.00       0.00       2.60      52.98       4.60      57.12        0.04    34.14   0.927
  B44                       61.59       0.00       0.00       2.60      53.28       4.66      57.47        0.02    19.77   0.933
  B122                      61.59       0.00       0.00       2.60      53.45       4.70      57.68        0.04    29.24   0.937
  B124                      61.59       0.00       0.00       2.60      53.60       4.72      57.85        0.02    14.93   0.939
  B126                      61.59       0.00       0.00       2.60      53.60       4.72      57.85        0.02    14.93   0.939
  B128                      61.59       0.00       0.00       2.60      53.60       4.72      57.85        0.02    14.93   0.939
  B130                      61.59       0.00       0.00       2.60      53.60       4.72      57.85        0.02    14.93   0.939
  B132                      61.59       0.00       0.00       2.60      53.70       4.74      57.97        0.02    14.94   0.941
  B135                      61.59       0.00       0.00       2.60      53.70       4.74      57.97        0.02    14.94   0.941
  B137                      61.59       0.00       0.00       2.60      53.70       4.74      57.97        0.02    14.94   0.941
  BBB118                    61.59       0.00       0.00       2.60      53.13       4.64      57.30        0.04    28.90   0.930
  B48                       61.59       0.00       0.00       2.60      53.06       4.62      57.22        0.04    28.77   0.929
  BB117                     61.59       0.00       0.00       2.60      53.13       4.64      57.30        0.04    28.90   0.930
  B83                       61.59       0.00       0.00       2.60      53.38       4.68      57.60        0.02    14.88   0.935
  B81                       61.59       0.00       0.00       2.60      53.38       4.68      57.60        0.02    14.88   0.935
  B79                       61.59       0.00       0.00       2.60      53.38       4.68      57.60        0.02    14.88   0.935
  B77                       61.59       0.00       0.00       2.60      53.38       4.68      57.60        0.02    14.88   0.935
  B75                       61.59       0.00       0.00       2.60      53.38       4.68      57.60        0.02    14.88   0.935
  B73                       61.59       0.00       0.00       2.60      53.38       4.68      57.60        0.02    14.88   0.935
  B71                       61.59       0.00       0.00       2.60      53.38       4.68      57.60        0.02    14.88   0.935
  B69                       61.59       0.00       0.00       2.60      53.38       4.68      57.60        0.02    14.88   0.935
  B70                       61.59       0.00       0.00       2.60      53.38       4.68      57.60        0.02    14.88   0.935
  B72                       61.59       0.00       0.00       2.60      53.38       4.68      57.60        0.02    14.88   0.935
  B74                       61.59       0.00       0.00       2.60      53.38       4.68      57.60        0.02    14.88   0.935
  B76                       61.59       0.00       0.00       2.60      53.38       4.68      57.60        0.02    14.88   0.935
  B78                       61.59       0.00       0.00       2.60      53.38       4.68      57.60        0.02    14.88   0.935
  B80                       61.59       0.00       0.00       2.60      53.38       4.68      57.60        0.02    14.88   0.935
  B82                       61.59       0.00       0.00       2.60      53.38       4.68      57.60        0.02    14.88   0.935
  B84                       61.59       0.00       0.00       2.60      53.38       4.68      57.60        0.02    14.88   0.935
  B85                       61.59       0.00       0.00       2.60      53.43       4.69      57.65        0.02    14.90   0.936
  B86                       61.59       0.00       0.00       2.60      53.43       4.69      57.65        0.02    14.90   0.936
  B88                       61.59       0.00       0.00       2.60      53.43       4.69      57.65        0.02    14.90   0.936
  B90                       61.59       0.00       0.00       2.60      53.43       4.69      57.65        0.02    14.90   0.936
  B92                       61.59       0.00       0.00       2.60      53.43       4.69      57.65        0.02    14.90   0.936
  B94                       61.59       0.00       0.00       2.60      53.43       4.69      57.65        0.02    14.90   0.936
  B96                       61.59       0.00       0.00       2.60      53.43       4.69      57.65        0.02    14.90   0.936
  B95                       61.59       0.00       0.00       2.60      53.43       4.69      57.65        0.02    14.90   0.936
  B93                       61.59       0.00       0.00       2.60      53.44       4.69      57.67        0.02    14.90   0.936
  B91                       61.59       0.00       0.00       2.60      53.43       4.69      57.65        0.02    14.90   0.936
  B89                       61.59       0.00       0.00       2.60      53.43       4.69      57.65        0.02    14.90   0.936
  B87                       61.59       0.00       0.00       2.60      53.43       4.69      57.65        0.02    14.90   0.936
  B116                      61.59       0.00       0.00       2.60      53.43       4.69      57.65        0.02    14.90   0.936
  B114                      61.59       0.00       0.00       2.60      53.43       4.69      57.65        0.02    14.90   0.936
  B112                      61.59       0.00       0.00       2.60      53.43       4.69      57.65        0.02    14.90   0.936
  B110                      61.59       0.00       0.00       2.60      53.43       4.69      57.65        0.02    14.90   0.936
  B50                       61.59       0.00       0.00       2.60      53.38       4.68      57.60        0.02    14.88   0.935
  B52                       61.59       0.00       0.00       2.60      53.38       4.68      57.60        0.02    14.88   0.935
  B54                       61.59       0.00       0.00       2.60      53.38       4.68      57.60        0.02    14.88   0.935
  B56                       61.59       0.00       0.00       2.60      53.38       4.68      57.60        0.02    14.88   0.935
  B58                       61.59       0.00       0.00       2.60      53.38       4.68      57.60        0.02    14.88   0.935
  B60                       61.59       0.00       0.00       2.60      53.38       4.68      57.60        0.02    14.88   0.935
  B106                      61.59       0.00       0.00       2.60      53.43       4.69      57.65        0.02    14.90   0.936
  B104                      61.59       0.00       0.00       2.60      53.43       4.69      57.65        0.02    14.90   0.936
  B102                      61.59       0.00       0.00       2.60      53.43       4.69      57.65        0.02    14.90   0.936
  B100                      61.59       0.00       0.00       2.60      53.13       4.64      57.30        0.04    28.90   0.930
  B66                       61.59       0.00       0.00       2.60      53.06       4.62      57.22        0.04    28.77   0.929
  B62                       61.59       0.00       0.00       2.60      53.38       4.68      57.60        0.02    14.88   0.935
  B64                       61.59       0.00       0.00       2.60      53.38       4.68      57.60        0.02    14.88   0.935
  B65                       61.59       0.00       0.00       2.60      53.06       4.62      57.22        0.04    28.77   0.929
  B63                       61.59       0.00       0.00       2.60      53.38       4.68      57.60        0.02    14.88   0.935
  B61                       61.59       0.00       0.00       2.60      53.38       4.68      57.60        0.02    14.88   0.935
  B59                       61.59       0.00       0.00       2.60      53.38       4.68      57.60        0.02    14.88   0.935
  B57                       61.59       0.00       0.00       2.60      53.38       4.68      57.60        0.02    14.88   0.935
  B55                       61.59       0.00       0.00       2.60      53.38       4.68      57.60        0.02    14.88   0.935
  B53                       61.59       0.00       0.00       2.60      53.38       4.68      57.60        0.02    14.88   0.935
  B51                       61.59       0.00       0.00       2.60      53.38       4.68      57.60        0.02    14.88   0.935
  B49                       61.59       0.00       0.00       2.60      53.38       4.68      57.60        0.02    14.88   0.935
  B138                      61.59       0.00       0.00       2.60      53.53       4.71      57.77        0.04    32.87   0.938
  B188                      61.59       0.00       0.00       2.60      53.47       4.70      58.17        0.04    32.35   0.945
  B189                      61.59       0.00       0.00       2.60      53.67       4.73      58.40        0.02    15.09   0.948
  B190                      61.59       0.00       0.00       2.60      53.67       4.73      58.40        0.02    15.09   0.948
  B191                      61.59       0.00       0.00       2.60      53.67       4.73      58.40        0.02    15.09   0.948
  B192                      61.59       0.00       0.00       2.60      53.67       4.73      58.40        0.02    15.09   0.948
  B193                      61.59       0.00       0.00       2.60      53.67       4.73      58.40        0.02    15.09   0.948
  B194                      61.59       0.00       0.00       2.60      53.49       4.70      58.19        0.04    29.55   0.945
  B195                      61.59       0.00       0.00       2.60      53.07       4.63      57.69        0.04    29.06   0.937
  B196                      61.59       0.00       0.00       2.60      53.39       4.68      58.07        0.02    15.03   0.943
  B197                      61.59       0.00       0.00       2.60      53.39       4.68      58.07        0.02    15.03   0.943
  B198                      61.59       0.00       0.00       2.60      53.39       4.68      58.07        0.02    15.03   0.943
  B199                      61.59       0.00       0.00       2.60      53.39       4.68      58.07        0.02    15.03   0.943
  B204                      61.59       0.00       0.00       2.60      53.07       4.63      57.69        0.04    29.06   0.937
  B203                      61.59       0.00       0.00       2.60      53.39       4.68      58.07        0.02    15.03   0.943
  B202                      61.59       0.00       0.00       2.60      53.39       4.68      58.07        0.02    15.03   0.943
  B200                      61.59       0.00       0.00       2.60      53.39       4.68      58.07        0.02    15.03   0.943
  B201                      61.59       0.00       0.00       2.60      53.39       4.68      58.07        0.02    15.03   0.943
  B176                      61.59       0.00       0.00       2.60      53.48       4.70      57.70        0.04    32.18   0.937
  B177                      61.59       0.00       0.00       2.60      53.67       4.73      57.93        0.02    14.94   0.941
  B178                      61.59       0.00       0.00       2.60      53.67       4.73      58.40        0.02    15.09   0.948
  B179                      61.59       0.00       0.00       2.60      53.67       4.73      58.40        0.02    15.09   0.948
  B180                      61.59       0.00       0.00       2.60      53.67       4.73      58.40        0.02    15.09   0.948
  B181                      61.59       0.00       0.00       2.60      53.67       4.73      58.40        0.02    15.09   0.948
  B182                      61.59       0.00       0.00       2.60      53.67       4.73      58.40        0.02    15.09   0.948
  B183                      61.59       0.00       0.00       2.60      53.39       4.68      58.07        0.02    15.03   0.943
  B184                      61.59       0.00       0.00       2.60      53.39       4.68      58.07        0.02    15.03   0.943
  B185                      61.59       0.00       0.00       2.60      53.39       4.68      58.07        0.02    15.03   0.943
  B186                      61.59       0.00       0.00       2.60      53.39       4.68      58.07        0.02    15.03   0.943
  B187                      61.59       0.00       0.00       2.60      53.07       4.63      57.23        0.04    28.79   0.929
  B165                      61.59       0.00       0.00       2.60      53.34       4.67      57.54        0.04    29.16   0.934
  BB166                     61.59       0.00       0.00       2.60      53.57       4.72      58.29        0.02    15.07   0.946
  BB167                     61.59       0.00       0.00       2.60      53.57       4.72      58.29        0.02    15.07   0.946
  B168                      61.59       0.00       0.00       2.60      53.70       4.74      58.44        0.02    15.09   0.949
  B169                      61.59       0.00       0.00       2.60      53.70       4.74      57.96        0.02    14.94   0.941
  B170                      61.59       0.00       0.00       2.60      53.70       4.74      57.96        0.02    14.94   0.941
  B171                      61.59       0.00       0.00       2.60      53.70       4.74      57.96        0.02    14.94   0.941
  B172                      61.59       0.00       0.00       2.60      53.70       4.74      57.96        0.02    14.94   0.941
  B173                      61.59       0.00       0.00       2.60      53.72       4.75      57.99        0.02    14.94   0.942
  B174                      61.59       0.00       0.00       2.60      53.72       4.75      57.99        0.02    14.94   0.942
  B175                      61.59       0.00       0.00       2.60      53.59       4.72      57.83        0.04    30.09   0.939
  B150                      61.59       0.00       0.00       2.60      53.59       4.72      58.31        0.04    30.44   0.947
  B151                      61.59       0.00       0.00       2.60      53.70       4.74      58.44        0.02    17.63   0.949
  B152                      61.59       0.00       0.00       2.60      53.70       4.74      58.44        0.02    17.63   0.949
  B153                      61.59       0.00       0.00       2.60      53.69       4.74      58.42        0.02    16.33   0.949
  B154                      61.59       0.00       0.00       2.60      53.68       4.74      58.41        0.02    17.05   0.948
  B155                      61.59       0.00       0.00       2.60      53.67       4.73      58.41        0.02    17.77   0.948
  B157                      61.59       0.00       0.00       2.60      53.70       4.74      58.44        0.02    15.47   0.949
  B158                      61.59       0.00       0.00       2.60      53.69       4.74      57.96        0.02    15.56   0.941
  B159                      61.59       0.00       0.00       2.60      53.55       4.71      57.79        0.02    16.58   0.938
  B160                      61.59       0.00       0.00       2.60      53.70       4.74      57.96        0.02    14.94   0.941
  B161                      61.59       0.00       0.00       2.60      53.50       4.70      57.73        0.02    19.32   0.937
  B162                      61.59       0.00       0.00       2.60      53.57       4.72      57.81        0.02    14.93   0.939
  B163                      61.59       0.00       0.00       2.60      53.29       4.66      57.49        0.04    33.87   0.933
  B164                      61.59       0.00       0.00       2.60      53.19       4.64      57.37        0.05    42.57   0.931
  B210                      61.59       0.00       0.00       2.60      52.63      30.36      56.68        0.54   408.78   0.920
  B205                      61.59       0.00       0.00       2.60      53.07       4.62      57.69        0.04    30.27   0.937
  B206                      61.59       0.00       0.00       2.60      53.36       4.68      58.04        0.02    16.45   0.942
  B207                      61.59       0.00       0.00       2.60      53.33       4.67      58.00        0.02    17.86   0.942
  B208                      61.59       0.00       0.00       2.60      53.28       4.66      57.95        0.02    19.78   0.941
  B209                      61.59       0.00       0.00       2.60      53.22       4.65      57.88        0.03    22.29   0.940
  B211                      61.59       0.00       0.00       2.60      53.00       4.61      57.61        0.04    32.34   0.935
  B212                      61.59       0.00       0.00       2.60      53.53       4.71      58.24        0.02    15.69   0.946
  B213                      61.59       0.00       0.00       2.60      53.49       4.70      58.19        0.02    17.74   0.945
  B214                      61.59       0.00       0.00       2.60      53.26       4.66      57.92        0.04    31.69   0.940
  B215                      61.59       0.00       0.00       2.60      53.47       4.70      58.16        0.03    25.04   0.944
  B216                      61.59       0.00       0.00       2.60      53.34       4.67      58.01        0.04    35.58   0.942
  B217                      61.59       0.00       0.00       2.60      53.49       4.70      58.19        0.02    15.06   0.945
  B218                      61.59       0.00       0.00       2.60      53.49       4.70      58.19        0.02    15.06   0.945
  B219                      61.59       0.00       0.00       2.60      53.49       4.70      58.19        0.02    15.06   0.945
  B220                      61.59       0.00       0.00       2.60      53.42       4.69      58.11        0.02    18.67   0.944
  B221                      61.59       0.00       0.00       2.60      53.36       4.67      58.04        0.05    41.65   0.942
  B224                      61.59       0.00       0.00       2.60      53.65       4.73      58.38        0.02    15.09   0.948
  B223                      61.59       0.00       0.00       2.60      53.65       4.73      58.38        0.02    15.09   0.948
  B222                      61.59       0.00       0.00       2.60      53.38       4.68      58.06        0.03    25.28   0.943
  
  
  ******************
  Node Depth Summary
  ******************
  
  ---------------------------------------------------------------------------------
                                 Average  Maximum  Maximum  Time of Max    Reported
                                   Depth    Depth      HGL   Occurrence   Max Depth
  Node                 Type       Meters   Meters   Meters  days hr:min      Meters
  ---------------------------------------------------------------------------------
  P1                   JUNCTION     0.14     1.42  1048.62     0  01:05        1.31
  P2                   JUNCTION     0.18     1.59  1048.61     0  01:04        1.47
  P3                   JUNCTION     0.18     1.85  1048.53     0  01:05        1.71
  P4                   JUNCTION     0.25     2.01  1048.53     0  01:05        1.88
  P5                   JUNCTION     0.21     2.01  1048.19     0  01:05        1.90
  P6                   JUNCTION     0.29     2.18  1048.19     0  01:05        2.07
  P7                   JUNCTION     0.30     2.05  1047.84     0  01:05        1.95
  P8                   JUNCTION     0.16     1.34  1046.89     0  01:04        1.29
  P9                   JUNCTION     0.27     1.51  1046.88     0  01:04        1.46
  P10                  JUNCTION     0.05     0.27  1045.21     0  01:04        0.25
  P11                  JUNCTION     0.16     0.44  1045.21     0  01:04        0.41
  P12                  JUNCTION     0.07     0.83  1045.33     0  01:03        0.49
  P13                  JUNCTION     0.18     0.97  1045.30     0  01:03        0.66
  P17                  JUNCTION     0.07     1.00  1047.16     0  01:01        0.86
  P18                  JUNCTION     0.11     1.02  1047.01     0  01:04        1.02
  P19                  JUNCTION     0.06     0.83  1046.79     0  01:04        0.83
  P20                  JUNCTION     0.15     1.29  1046.78     0  01:04        1.29
  P23                  JUNCTION     0.05     0.78  1046.45     0  01:03        0.78
  P24                  JUNCTION     0.16     1.18  1046.45     0  01:03        1.17
  P25                  JUNCTION     0.05     0.24  1044.96     0  01:03        0.20
  P26                  JUNCTION     0.13     0.38  1044.95     0  01:04        0.38
  P27                  JUNCTION     0.10     0.38  1044.59     0  01:04        0.38
  P28                  JUNCTION     0.14     0.42  1044.59     0  01:04        0.42
  P29                  JUNCTION     0.05     0.21  1044.23     0  01:04        0.20
  P30                  JUNCTION     0.13     0.39  1044.24     0  01:03        0.39
  P31                  JUNCTION     0.44     0.55  1043.95     0  01:03        0.55
  P32                  JUNCTION     0.18     0.48  1043.71     0  01:04        0.48
  P33                  JUNCTION     0.04     0.25  1042.69     0  01:05        0.17
  P34                  JUNCTION     0.14     0.37  1042.63     0  01:04        0.36
  P35                  JUNCTION     0.03     0.19  1040.88     0  01:04        0.09
  P36                  JUNCTION     0.12     0.32  1040.84     0  01:04        0.32
  P37                  JUNCTION     0.05     0.16  1037.61     0  01:05        0.12
  P38                  JUNCTION     0.13     0.34  1037.62     0  01:04        0.34
  P39                  JUNCTION     0.06     1.00  1049.17     0  01:03        0.67
  P40                  JUNCTION     0.09     1.00  1049.00     0  01:03        0.83
  P41                  JUNCTION     0.12     1.36  1048.86     0  01:04        1.24
  P42                  JUNCTION     0.25     1.93  1048.86     0  01:04        1.81
  P43                  JUNCTION     0.14     1.61  1048.53     0  01:05        1.44
  P44                  JUNCTION     0.22     1.78  1048.52     0  01:05        1.61
  P45                  JUNCTION     0.15     1.60  1047.89     0  01:05        1.49
  P46                  JUNCTION     0.23     1.77  1047.89     0  01:05        1.66
  P47                  JUNCTION     0.14     1.42  1046.75     0  01:04        1.39
  P48                  JUNCTION     0.21     1.58  1046.75     0  01:04        1.55
  P49                  JUNCTION     0.11     1.26  1045.77     0  01:00        1.19
  P50                  JUNCTION     0.21     1.37  1045.70     0  01:04        1.36
  P51                  JUNCTION     0.04     0.15  1042.86     0  01:06        0.12
  P52                  JUNCTION     0.11     0.32  1042.86     0  01:04        0.32
  P53                  JUNCTION     0.05     0.16  1038.73     0  01:01        0.16
  P54                  JUNCTION     0.12     0.31  1038.71     0  01:04        0.31
  P55                  JUNCTION     0.16     0.44  1037.70     0  01:04        0.44
  P57                  JUNCTION     0.14     0.37  1037.22     0  01:04        0.37
  P58                  JUNCTION     0.22     0.69  1036.35     0  01:04        0.67
  P22                  JUNCTION     0.06     0.91  1046.44     0  01:04        0.91
  P21                  JUNCTION     0.05     0.77  1046.47     0  01:01        0.74
  P16                  JUNCTION     0.10     0.24  1044.27     0  01:04        0.24
  P14                  JUNCTION     0.22     0.92  1045.07     0  01:03        0.69
  P84                  JUNCTION     0.01     0.04  1044.32     0  01:03        0.04
  P85                  JUNCTION     0.02     0.07  1044.32     0  01:04        0.07
  P86                  JUNCTION     0.04     0.11  1040.62     0  01:04        0.11
  P87                  JUNCTION     0.08     0.22  1037.28     0  01:04        0.22
  P88                  JUNCTION     0.07     0.19  1036.85     0  01:01        0.19
  P89                  JUNCTION     0.23     0.76  1036.82     0  01:04        0.76
  P59                  JUNCTION     0.04     0.09  1047.77     0  01:04        0.09
  P61                  JUNCTION     0.08     0.30  1046.88     0  01:04        0.28
  P62                  JUNCTION     0.11     0.82  1047.05     0  01:03        0.55
  P63                  JUNCTION     0.11     0.87  1046.88     0  01:02        0.57
  P64                  JUNCTION     0.16     0.53  1046.01     0  01:04        0.53
  P65                  JUNCTION     0.19     0.78  1046.29     0  01:03        0.78
  P66                  JUNCTION     0.15     0.44  1045.77     0  01:04        0.44
  P67                  JUNCTION     0.12     0.34  1044.72     0  01:04        0.34
  P68                  JUNCTION     0.05     0.12  1044.70     0  01:04        0.12
  P69                  JUNCTION     0.12     0.33  1042.07     0  01:04        0.33
  P70                  JUNCTION     0.04     0.11  1042.05     0  01:04        0.11
  P71                  JUNCTION     0.12     0.35  1038.63     0  01:04        0.35
  P72                  JUNCTION     0.05     0.13  1038.60     0  01:04        0.13
  P73                  JUNCTION     0.14     0.45  1037.66     0  01:04        0.45
  P74                  JUNCTION     0.19     0.58  1037.38     0  01:04        0.58
  P75                  JUNCTION     0.19     0.60  1037.18     0  01:04        0.60
  P76                  JUNCTION     0.20     0.69  1036.91     0  01:04        0.67
  P77                  JUNCTION     0.06     0.54  1036.96     0  01:02        0.52
  P78                  JUNCTION     0.09     0.26  1039.05     0  01:04        0.26
  P79                  JUNCTION     0.06     0.17  1038.76     0  01:04        0.17
  P80                  JUNCTION     0.06     0.16  1043.36     0  01:04        0.16
  P81                  JUNCTION     0.06     0.17  1043.39     0  01:04        0.17
  P82                  JUNCTION     0.05     0.13  1046.30     0  01:04        0.13
  P83                  JUNCTION     0.07     0.19  1046.38     0  01:03        0.19
  P60                  JUNCTION     0.07     0.19  1047.34     0  01:04        0.19
  P62A                 JUNCTION     0.09     0.64  1046.89     0  01:03        0.53
  P61A                 JUNCTION     0.07     0.29  1046.89     0  01:04        0.27
  P90                  JUNCTION     0.04     0.11  1047.24     0  01:04        0.11
  P91                  JUNCTION     0.04     0.11  1047.05     0  01:04        0.11
  P92                  JUNCTION     0.04     0.12  1046.22     0  01:04        0.12
  P93                  JUNCTION     0.08     0.22  1046.11     0  01:04        0.22
  P94                  JUNCTION     0.03     0.09  1045.83     0  01:04        0.09
  P95                  JUNCTION     0.08     0.24  1045.77     0  01:04        0.24
  P96                  JUNCTION     0.04     0.11  1045.49     0  01:01        0.11
  P97                  JUNCTION     0.08     0.24  1045.42     0  01:04        0.24
  E1                   OUTFALL      0.22     0.80  1035.80     0  01:03        0.66
  E32                  OUTFALL      0.23     0.73  1036.69     0  01:04        0.73
  E33                  OUTFALL      0.08     0.24  1044.62     0  01:04        0.24
  
  
  *******************
  Node Inflow Summary
  *******************
  
  -------------------------------------------------------------------------------------------------
                                  Maximum  Maximum                  Lateral       Total        Flow
                                  Lateral    Total  Time of Max      Inflow      Inflow     Balance
                                   Inflow   Inflow   Occurrence      Volume      Volume       Error
  Node                 Type           LPS      LPS  days hr:min    10^6 ltr    10^6 ltr     Percent
  -------------------------------------------------------------------------------------------------
  P1                   JUNCTION     59.68   147.26     0  01:01      0.0726      0.0728       0.056
  P2                   JUNCTION     59.82   145.14     0  01:01      0.0728       0.146       0.162
  P3                   JUNCTION     59.53   189.88     0  01:00      0.0725      0.0728       0.008
  P4                   JUNCTION     59.53   259.26     0  01:01      0.0725        0.29       0.350
  P5                   JUNCTION     73.69   145.36     0  01:00      0.0899      0.0901      -0.003
  P6                   JUNCTION     59.68   292.58     0  01:04      0.0726       0.452       0.168
  P7                   JUNCTION     57.55   324.15     0  01:04      0.0706       0.521       0.134
  P8                   JUNCTION     73.42    73.42     0  01:04      0.0897      0.0897       0.033
  P9                   JUNCTION     44.65   419.83     0  01:04      0.0543       0.665       0.261
  P10                  JUNCTION     44.79    44.79     0  01:04      0.0545      0.0545       0.047
  P11                  JUNCTION     44.65   487.85     0  01:04      0.0543       0.772       0.104
  P12                  JUNCTION     63.17    63.17     0  01:04      0.0774      0.0774       0.032
  P13                  JUNCTION     54.43   603.71     0  01:03      0.0663       0.915       0.123
  P17                  JUNCTION     74.41    74.41     0  01:04      0.0906      0.0906      -0.001
  P18                  JUNCTION     74.41   165.69     0  01:02      0.0906       0.181       0.164
  P19                  JUNCTION     73.42    73.42     0  01:04      0.0897      0.0897       0.007
  P20                  JUNCTION     44.65   280.59     0  01:02      0.0543       0.325       0.198
  P23                  JUNCTION     28.77    32.66     0  01:01      0.0353      0.0353       0.026
  P24                  JUNCTION     28.77   342.72     0  01:04      0.0353        0.43       0.297
  P25                  JUNCTION     44.65    44.65     0  01:04      0.0543      0.0543       0.050
  P26                  JUNCTION     44.65   439.76     0  01:03      0.0543       0.537       0.108
  P27                  JUNCTION     44.65    44.65     0  01:04      0.0543      0.0543       0.086
  P28                  JUNCTION     44.65   520.32     0  01:04      0.0543       0.646       0.172
  P29                  JUNCTION     58.54    58.54     0  01:04      0.0715      0.0715       0.036
  P30                  JUNCTION     63.91   642.61     0  01:03      0.0783       0.794       0.135
  P31                  JUNCTION     29.26    29.26     0  01:04      0.0356      0.0356       1.319
  P32                  JUNCTION      0.00  1252.18     0  01:04           0        1.74       0.073
  P33                  JUNCTION     44.82    44.82     0  01:04      0.0547      0.0547       0.093
  P34                  JUNCTION      0.00  1319.49     0  01:04           0        1.79       0.075
  P35                  JUNCTION     29.88    29.88     0  01:04      0.0365      0.0365       0.097
  P36                  JUNCTION      0.00  1346.83     0  01:04           0        1.83       0.056
  P37                  JUNCTION     61.24    61.24     0  01:04      0.0747      0.0747       0.034
  P38                  JUNCTION      0.00  1391.77     0  01:04           0         1.9       0.056
  P39                  JUNCTION     29.80    39.22     0  01:02      0.0363      0.0363      -0.018
  P40                  JUNCTION     59.59   101.53     0  01:03      0.0725       0.109       0.133
  P41                  JUNCTION     73.11    73.11     0  01:04      0.0896      0.0896      -0.003
  P42                  JUNCTION     73.60   246.42     0  01:03      0.0898       0.288       0.477
  P43                  JUNCTION     43.80    55.66     0  01:01      0.0535      0.0536       0.060
  P44                  JUNCTION     43.80   298.01     0  01:00      0.0535       0.394       0.228
  P45                  JUNCTION     59.59    68.11     0  01:01      0.0725      0.0725      -0.002
  P46                  JUNCTION     59.59   382.10     0  01:01      0.0725       0.538       0.176
  P47                  JUNCTION     73.60    73.60     0  01:04      0.0898      0.0898       0.022
  P48                  JUNCTION     73.60   452.74     0  01:04      0.0898       0.716       0.106
  P49                  JUNCTION     29.23    43.06     0  01:00      0.0356      0.0356       0.019
  P50                  JUNCTION     29.24   496.33     0  01:04      0.0356       0.787       0.090
  P51                  JUNCTION     44.79    44.79     0  01:04      0.0546      0.0546       0.053
  P52                  JUNCTION     44.79   582.17     0  01:04      0.0546       0.895       0.096
  P53                  JUNCTION     92.62    92.62     0  01:04       0.113       0.113       0.027
  P54                  JUNCTION     59.75   733.64     0  01:04      0.0729        1.08       0.070
  P55                  JUNCTION     30.98   763.99     0  01:04      0.0377        1.12       0.064
  P57                  JUNCTION      0.00   763.40     0  01:04           0        1.12       0.138
  P58                  JUNCTION      0.00  2136.13     0  01:04           0        3.02       0.029
  P22                  JUNCTION      0.00    41.15     0  01:01           0      0.0356       0.002
  P21                  JUNCTION     28.77    43.69     0  01:01      0.0353      0.0353       0.046
  P16                  JUNCTION      0.00   588.59     0  01:04           0       0.912       0.062
  P14                  JUNCTION      0.00   588.16     0  01:03           0       0.913       0.182
  P84                  JUNCTION      0.00     0.39     0  00:59           0       5e-05       0.255
  P85                  JUNCTION     33.87    33.90     0  01:03      0.0413      0.0413       0.134
  P86                  JUNCTION     69.14   103.01     0  01:04      0.0842       0.125       0.140
  P87                  JUNCTION     33.96   136.88     0  01:04      0.0414       0.167       0.212
  P88                  JUNCTION      0.00   136.68     0  01:04           0       0.166       0.273
  P89                  JUNCTION      0.00  1570.64     0  01:04           0        2.01       0.052
  P59                  JUNCTION     65.11    65.11     0  01:04      0.0792      0.0792       0.024
  P61                  JUNCTION     42.07   139.65     0  01:04      0.0512        0.17       0.138
  P62                  JUNCTION     64.58   201.26     0  01:03      0.0788       0.249       0.180
  P63                  JUNCTION     29.06   222.46     0  01:04      0.0356       0.283       0.189
  P64                  JUNCTION     45.09   676.55     0  01:04      0.0548       0.877       0.100
  P65                  JUNCTION    408.78   408.78     0  01:04        0.54        0.54       0.054
  P66                  JUNCTION     30.06   709.34     0  01:04      0.0365       0.913       0.123
  P67                  JUNCTION     74.15   846.20     0  01:04      0.0904        1.09       0.123
  P68                  JUNCTION     73.88    73.88     0  01:04      0.0901      0.0901       0.028
  P69                  JUNCTION     44.63   944.70     0  01:04      0.0543        1.22       0.102
  P70                  JUNCTION     60.29    60.29     0  01:04      0.0734      0.0734       0.030
  P71                  JUNCTION     60.35  1073.32     0  01:04      0.0735        1.39       0.063
  P72                  JUNCTION     77.29    77.29     0  01:04      0.0941      0.0941       0.027
  P73                  JUNCTION     32.35  1103.43     0  01:04      0.0393        1.42       0.023
  P74                  JUNCTION      0.00  1104.26     0  01:04           0        1.42       0.057
  P75                  JUNCTION      0.00  1106.18     0  01:04           0        1.42       0.108
  P76                  JUNCTION      0.00  1167.36     0  01:04           0        1.46       0.100
  P77                  JUNCTION     30.09    86.98     0  01:01      0.0367      0.0417      -0.068
  P78                  JUNCTION     44.82   268.83     0  01:03      0.0547       0.328       0.089
  P79                  JUNCTION     48.07   316.70     0  01:04      0.0585       0.386       0.022
  P80                  JUNCTION     59.91   225.29     0  01:03      0.0731       0.273       0.108
  P81                  JUNCTION     47.55    47.55     0  01:04       0.058       0.058       0.064
  P82                  JUNCTION     59.31   125.17     0  01:04      0.0722       0.142       0.061
  P83                  JUNCTION     57.50    57.50     0  01:04      0.0702      0.0702       0.105
  P60                  JUNCTION     32.34    97.44     0  01:04      0.0397       0.119       0.271
  P62A                 JUNCTION      0.00    19.24     0  01:03           0    0.000653       4.326
  P61A                 JUNCTION      0.00     3.83     0  01:03           0    0.000381      10.283
  P90                  JUNCTION     60.62    60.62     0  01:04      0.0737      0.0737       0.035
  P91                  JUNCTION      0.00    60.61     0  01:04           0      0.0737       0.108
  P92                  JUNCTION     63.85    63.85     0  01:04      0.0776      0.0776       0.032
  P93                  JUNCTION      0.00   124.40     0  01:04           0       0.151       0.228
  P94                  JUNCTION     41.65    41.65     0  01:04      0.0506      0.0506       0.039
  P95                  JUNCTION      0.00   165.82     0  01:04           0       0.201       0.176
  P96                  JUNCTION     55.45    55.45     0  01:04      0.0674      0.0674       0.034
  P97                  JUNCTION      0.00   221.03     0  01:04           0       0.269       0.123
  E1                   OUTFALL       0.00  2117.39     0  01:04           0        3.01       0.000
  E32                  OUTFALL       0.00  1568.73     0  01:04           0        2.01       0.000
  E33                  OUTFALL       0.00   220.90     0  01:04           0       0.268       0.000
  
  
  **********************
  Node Surcharge Summary
  **********************
  
  Surcharging occurs when water rises above the top of the highest conduit.
  ---------------------------------------------------------------------
                                               Max. Height   Min. Depth
                                   Hours       Above Crown    Below Rim
  Node                 Type      Surcharged         Meters       Meters
  ---------------------------------------------------------------------
  P1                   JUNCTION        0.17          1.023        0.000
  P2                   JUNCTION        0.18          1.190        0.000
  P3                   JUNCTION        0.20          1.446        0.000
  P4                   JUNCTION        0.20          1.613        0.000
  P5                   JUNCTION        0.21          1.610        0.000
  P6                   JUNCTION        0.22          1.778        0.000
  P7                   JUNCTION        0.23          1.651        0.000
  P8                   JUNCTION        0.21          0.941        0.000
  P9                   JUNCTION        0.25          1.110        0.000
  P12                  JUNCTION        0.03          0.425        0.405
  P13                  JUNCTION        0.02          0.367        0.233
  P17                  JUNCTION        0.05          0.604        0.000
  P18                  JUNCTION        0.06          0.625        0.000
  P19                  JUNCTION        0.05          0.433        0.167
  P20                  JUNCTION        0.10          0.889        0.000
  P23                  JUNCTION        0.06          0.383        0.217
  P24                  JUNCTION        0.14          0.784        0.021
  P31                  JUNCTION        1.68          0.155        1.245
  P39                  JUNCTION        0.08          0.600        0.000
  P40                  JUNCTION        0.11          0.601        0.000
  P41                  JUNCTION        0.16          0.961        0.000
  P42                  JUNCTION        0.18          1.532        0.000
  P43                  JUNCTION        0.16          1.213        0.000
  P44                  JUNCTION        0.17          1.379        0.000
  P45                  JUNCTION        0.16          1.201        0.000
  P46                  JUNCTION        0.17          1.368        0.000
  P47                  JUNCTION        0.16          1.016        0.000
  P48                  JUNCTION        0.17          1.185        0.000
  P49                  JUNCTION        0.16          0.862        0.098
  P50                  JUNCTION        0.18          0.969        0.000
  P22                  JUNCTION        0.08          0.509        0.000
  P21                  JUNCTION        0.05          0.372        0.103
  P14                  JUNCTION        0.05          0.318        0.728
  P62                  JUNCTION        0.03          0.421        0.179
  P63                  JUNCTION        0.05          0.470        0.330
  P65                  JUNCTION        0.18          0.376        0.394
  P62A                 JUNCTION        0.03          0.240        0.000
  
  
  *********************
  Node Flooding Summary
  *********************
  
  Flooding refers to all water that overflows a node, whether it ponds or not.
  --------------------------------------------------------------------------
                                                             Total   Maximum
                                 Maximum   Time of Max       Flood    Ponded
                        Hours       Rate    Occurrence      Volume     Depth
  Node                 Flooded       LPS   days hr:min    10^6 ltr    Meters
  --------------------------------------------------------------------------
  P1                      0.12     64.71      0  01:01       0.001     0.423
  P2                      0.15    102.92      0  01:00       0.003     0.590
  P3                      0.17    124.90      0  01:00       0.001     0.866
  P4                      0.19    163.22      0  01:00       0.010     1.033
  P5                      0.19     70.20      0  01:00       0.001     1.010
  P6                      0.20    118.35      0  01:00       0.009     1.178
  P7                      0.21     66.25      0  01:00       0.006     1.051
  P8                      0.14     17.83      0  00:59       0.000     0.341
  P9                      0.18     38.37      0  01:02       0.006     0.510
  P17                     0.01     14.80      0  01:01       0.000     0.004
  P18                     0.02     31.76      0  01:01       0.000     0.025
  P20                     0.05     56.75      0  01:02       0.002     0.289
  P40                     0.01     10.61      0  01:03       0.000     0.001
  P41                     0.08     12.64      0  01:03       0.000     0.286
  P42                     0.16     82.99      0  01:03       0.008     0.857
  P43                     0.14     29.74      0  01:01       0.001     0.613
  P44                     0.16     47.87      0  01:01       0.007     0.779
  P45                     0.15     57.82      0  01:01       0.001     0.601
  P46                     0.16     90.85      0  01:01       0.007     0.768
  P47                     0.13     53.69      0  01:01       0.001     0.416
  P48                     0.15     64.04      0  01:01       0.004     0.585
  P50                     0.02      3.06      0  01:04       0.000     0.009
  P22                     0.02      4.71      0  01:01       0.000     0.034
  P62A                    0.01     11.47      0  01:03       0.000     0.000
  
  
  ***********************
  Outfall Loading Summary
  ***********************
  
  -----------------------------------------------------------
                         Flow       Avg       Max       Total
                         Freq      Flow      Flow      Volume
  Outfall Node           Pcnt       LPS       LPS    10^6 ltr
  -----------------------------------------------------------
  E1                    95.63    460.91   2117.39       3.015
  E32                   95.83    306.15   1568.73       2.007
  E33                   95.56     41.03    220.90       0.268
  -----------------------------------------------------------
  System                95.67    808.09   3904.07       5.289
  
  
  
  ********************
  Link Flow Summary
  ********************
  
  -----------------------------------------------------------------------------
                                 Maximum  Time of Max   Maximum    Max/    Max/
                                  |Flow|   Occurrence   |Veloc|    Full    Full
  Link                 Type          LPS  days hr:min     m/sec    Flow   Depth
  -----------------------------------------------------------------------------
  G1                   CONDUIT     92.16     0  01:01      1.16    0.28    1.00
  G2                   CONDUIT    147.37     0  01:01      1.25    0.70    1.00
  G3                   CONDUIT    138.75     0  01:00      1.14    0.47    1.00
  G4                   CONDUIT    172.50     0  01:06      1.44    0.82    1.00
  G5                   CONDUIT    105.97     0  01:00      0.84    0.32    1.00
  G6                   CONDUIT    269.56     0  01:04      2.15    1.25    1.00
  G7                   CONDUIT    315.00     0  01:05      2.51    1.52    1.00
  G8                   CONDUIT     74.51     0  00:59      0.79    0.23    1.00
  G38                  CONDUIT     42.29     0  01:03      0.99    0.13    1.00
  G39                  CONDUIT    101.40     0  01:03      0.92    0.33    1.00
  G40                  CONDUIT    136.80     0  01:11      1.37    0.23    1.00
  G41                  CONDUIT    237.04     0  01:10      1.89    1.84    1.00
  G42                  CONDUIT     71.05     0  01:11      0.80    0.22    1.00
  G43                  CONDUIT    291.23     0  01:10      2.32    1.23    1.00
  G44                  CONDUIT     96.72     0  01:01      0.81    0.30    1.00
  G45                  CONDUIT    352.11     0  01:10      2.80    1.20    1.00
  G46                  CONDUIT    101.79     0  01:01      0.92    0.31    1.00
  G47                  CONDUIT    447.62     0  01:04      3.56    1.13    1.00
  G48                  CONDUIT     32.83     0  01:00      0.37    0.10    1.00
  G49                  CONDUIT    493.26     0  01:04      4.18    1.22    0.90
  G50                  CONDUIT     44.65     0  01:03      0.79    0.14    0.55
  G51                  CONDUIT    581.62     0  01:04      5.54    0.97    0.78
  G52                  CONDUIT     92.62     0  01:04      1.28    0.29    0.58
  G53                  CONDUIT    733.16     0  01:04      3.95    0.52    0.62
  G54                  CONDUIT    763.40     0  01:04      3.74    0.90    0.68
  G56                  CONDUIT    763.03     0  01:04      3.94    0.70    0.73
  G16                  CONDUIT     93.12     0  01:02      1.19    0.29    1.00
  G17                  CONDUIT    166.42     0  01:02      1.32    0.80    1.00
  G18                  CONDUIT     99.66     0  01:05      0.96    0.18    1.00
  G19                  CONDUIT    263.19     0  01:04      2.09    1.25    1.00
  G20                  CONDUIT     41.15     0  01:01      1.49    0.13    1.00
  G21                  CONDUIT     40.99     0  01:01      0.35    0.12    1.00
  G22                  CONDUIT     40.32     0  01:01      0.38    0.08    1.00
  G23                  CONDUIT    342.66     0  01:04      2.74    1.64    0.98
  G24                  CONDUIT     55.44     0  01:02      0.68    0.18    0.77
  G25                  CONDUIT    432.17     0  01:04      2.16    0.70    0.67
  G26                  CONDUIT     44.63     0  01:03      0.38    0.28    0.98
  G27                  CONDUIT    518.67     0  01:04      2.56    0.85    0.67
  G28                  CONDUIT     62.32     0  01:03      0.77    0.19    0.75
  G9                   CONDUIT    404.55     0  01:04      3.22    1.94    1.00
  G10                  CONDUIT     56.06     0  01:01      0.63    0.17    0.84
  G11                  CONDUIT    486.62     0  01:03      2.10    0.79    0.86
  G12                  CONDUIT     76.30     0  01:00      0.77    0.23    1.00
  G13                  CONDUIT    588.16     0  01:03      2.13    0.92    1.00
  G14                  CONDUIT    588.59     0  01:04      2.85    1.85    0.70
  G29                  CONDUIT    639.44     0  01:04      3.34    0.75    0.64
  G15                  CONDUIT    586.76     0  01:04      3.50    0.34    0.60
  G30                  CONDUIT     29.28     0  01:03      0.39    0.06    0.58
  G31                  CONDUIT   1256.53     0  01:04      4.73    0.66    0.53
  G33                  CONDUIT   1311.99     0  01:04      6.45    0.41    0.43
  G34                  CONDUIT     48.34     0  01:03      0.71    0.15    0.64
  G35                  CONDUIT   1340.14     0  01:04      6.84    0.34    0.41
  G36                  CONDUIT     62.26     0  01:03      1.01    0.19    0.61
  G37                  CONDUIT   1386.64     0  01:04      6.22    0.38    0.50
  G32                  CONDUIT     69.79     0  01:03      0.81    0.22    0.76
  G57                  CONDUIT   2117.39     0  01:04      4.79    1.00    0.93
  G58                  CONDUIT     65.10     0  01:04      1.63    0.12    0.36
  G59                  CONDUIT     97.12     0  01:04      1.63    0.47    0.48
  G61                  CONDUIT    140.42     0  01:04      1.45    0.66    0.87
  G63                  CONDUIT    194.87     0  01:04      1.77    0.95    1.00
  G64                  CONDUIT    222.47     0  01:04      1.77    1.04    1.00
  G66                  CONDUIT    408.99     0  01:04      3.25    3.05    1.00
  G65                  CONDUIT    679.70     0  01:04      2.77    1.08    0.81
  G67                  CONDUIT    704.51     0  01:04      3.65    0.88    0.65
  G68                  CONDUIT     73.86     0  01:04      1.07    0.21    0.57
  G69                  CONDUIT    846.77     0  01:04      5.27    0.60    0.55
  G70                  CONDUIT     60.28     0  01:04      1.06    0.17    0.55
  G71                  CONDUIT    943.22     0  01:04      5.68    0.58    0.57
  G72                  CONDUIT     77.29     0  01:04      1.15    0.22    0.60
  G73                  CONDUIT   1072.49     0  01:04      5.37    0.66    0.67
  G74                  CONDUIT   1104.26     0  01:04      4.29    0.79    0.86
  G75                  CONDUIT   1106.18     0  01:04      2.80    0.84    0.74
  G76                  CONDUIT   1107.45     0  01:04      2.61    0.83    0.81
  G78                  CONDUIT   1142.94     0  01:04      2.44    0.87    0.90
  G77                  CONDUIT    110.35     0  01:01      0.59    0.11    0.95
  G60                  CONDUIT      5.44     0  01:04      0.08    0.06    0.73
  G62                  CONDUIT     19.24     0  01:03      0.15    0.17    1.00
  G79                  CONDUIT     65.86     0  01:04      1.47    0.59    0.39
  G80                  CONDUIT    117.95     0  01:04      2.95    0.22    0.36
  G81                  CONDUIT     47.54     0  01:04      1.04    0.43    0.41
  G82                  CONDUIT    224.09     0  01:04      3.35    0.33    0.53
  G83                  CONDUIT    268.63     0  01:04      3.84    0.76    0.54
  G84                  CONDUIT    316.67     0  01:04      3.28    0.39    0.72
  G85                  CONDUIT      0.39     0  00:59      0.06    0.00    0.13
  G86                  CONDUIT     33.88     0  01:04      1.63    0.06    0.22
  G87                  CONDUIT    102.92     0  01:04      2.05    0.17    0.42
  G88                  CONDUIT    136.68     0  01:04      1.89    0.60    0.56
  G89                  CONDUIT    136.64     0  01:04      1.63    0.22    0.48
  G90                  CONDUIT     60.61     0  01:04      2.12    0.17    0.28
  G91                  CONDUIT     60.57     0  01:04      1.25    0.16    0.41
  G92                  CONDUIT     63.84     0  01:04      1.28    0.18    0.43
  G94                  CONDUIT     41.65     0  01:04      0.89    0.12    0.41
  G93                  CONDUIT    124.24     0  01:04      1.67    0.58    0.57
  G95                  CONDUIT    165.67     0  01:04      2.12    0.67    0.60
  G96                  CONDUIT     55.44     0  01:04      1.18    0.16    0.43
  G152                 CONDUIT   1568.73     0  01:04      3.22    1.19    0.93
  G153                 CONDUIT    220.90     0  01:04      2.84    0.66    0.59
  
  
  ***************************
  Flow Classification Summary
  ***************************
  
  -------------------------------------------------------------------------------------
                      Adjusted    ---------- Fraction of Time in Flow Class ---------- 
                       /Actual         Up    Down  Sub   Sup   Up    Down  Norm  Inlet 
  Conduit               Length    Dry  Dry   Dry   Crit  Crit  Crit  Crit  Ltd   Ctrl  
  -------------------------------------------------------------------------------------
  G1                      1.00   0.04  0.00  0.00  0.11  0.85  0.00  0.00  0.83  0.00
  G2                      1.00   0.04  0.00  0.00  0.93  0.03  0.00  0.00  0.82  0.00
  G3                      1.00   0.04  0.00  0.00  0.94  0.03  0.00  0.00  0.83  0.00
  G4                      1.00   0.04  0.00  0.00  0.16  0.81  0.00  0.00  0.82  0.00
  G5                      1.00   0.04  0.00  0.00  0.94  0.02  0.00  0.00  0.83  0.00
  G6                      1.00   0.04  0.00  0.00  0.14  0.83  0.00  0.00  0.58  0.00
  G7                      1.00   0.04  0.00  0.00  0.18  0.79  0.00  0.00  0.71  0.00
  G8                      1.00   0.04  0.00  0.00  0.93  0.03  0.00  0.00  0.77  0.00
  G38                     1.00   0.04  0.00  0.00  0.32  0.64  0.00  0.00  0.88  0.00
  G39                     1.00   0.04  0.00  0.00  0.94  0.02  0.00  0.00  0.87  0.00
  G40                     1.00   0.04  0.00  0.00  0.94  0.03  0.00  0.00  0.87  0.00
  G41                     1.00   0.04  0.00  0.00  0.96  0.00  0.00  0.00  0.00  0.00
  G42                     1.00   0.04  0.00  0.00  0.94  0.03  0.00  0.00  0.84  0.00
  G43                     1.00   0.04  0.00  0.00  0.12  0.85  0.00  0.00  0.77  0.00
  G44                     1.00   0.04  0.00  0.00  0.93  0.04  0.00  0.00  0.84  0.00
  G45                     1.00   0.04  0.00  0.00  0.10  0.87  0.00  0.00  0.35  0.00
  G46                     1.00   0.04  0.00  0.00  0.93  0.03  0.00  0.00  0.85  0.00
  G47                     1.00   0.04  0.00  0.00  0.09  0.87  0.00  0.00  0.78  0.00
  G48                     1.00   0.04  0.00  0.00  0.95  0.02  0.00  0.00  0.83  0.00
  G49                     1.00   0.04  0.00  0.00  0.00  0.96  0.00  0.00  0.02  0.00
  G50                     1.00   0.04  0.00  0.00  0.93  0.04  0.00  0.00  0.87  0.00
  G51                     1.00   0.04  0.00  0.00  0.00  0.96  0.00  0.00  0.85  0.00
  G52                     1.00   0.04  0.00  0.00  0.90  0.06  0.00  0.00  0.89  0.00
  G53                     1.00   0.04  0.00  0.00  0.00  0.96  0.00  0.00  0.95  0.00
  G54                     1.00   0.04  0.00  0.00  0.00  0.96  0.00  0.00  0.13  0.00
  G56                     1.00   0.04  0.00  0.00  0.00  0.09  0.00  0.87  0.08  0.00
  G16                     1.00   0.04  0.00  0.00  0.05  0.91  0.00  0.00  0.83  0.00
  G17                     1.00   0.04  0.00  0.00  0.30  0.66  0.00  0.00  0.88  0.00
  G18                     1.00   0.04  0.00  0.00  0.94  0.03  0.00  0.00  0.91  0.00
  G19                     1.00   0.04  0.00  0.00  0.10  0.87  0.00  0.00  0.66  0.00
  G20                     1.00   0.04  0.00  0.00  0.08  0.89  0.00  0.00  0.05  0.00
  G21                     1.00   0.04  0.00  0.00  0.96  0.00  0.00  0.00  0.88  0.00
  G22                     1.00   0.04  0.00  0.00  0.94  0.02  0.00  0.00  0.91  0.00
  G23                     1.00   0.04  0.00  0.00  0.00  0.00  0.00  0.96  0.00  0.00
  G24                     1.00   0.04  0.00  0.00  0.94  0.02  0.00  0.00  0.86  0.00
  G25                     1.00   0.04  0.00  0.00  0.01  0.95  0.00  0.00  0.76  0.00
  G26                     1.00   0.04  0.00  0.00  0.96  0.01  0.00  0.00  0.05  0.00
  G27                     1.00   0.04  0.00  0.00  0.02  0.95  0.00  0.00  0.18  0.00
  G28                     1.00   0.04  0.00  0.00  0.93  0.03  0.00  0.00  0.89  0.00
  G9                      1.00   0.04  0.00  0.00  0.00  0.00  0.00  0.96  0.00  0.00
  G10                     1.00   0.04  0.00  0.00  0.94  0.02  0.00  0.00  0.79  0.00
  G11                     1.00   0.04  0.00  0.00  0.06  0.90  0.00  0.00  0.70  0.00
  G12                     1.00   0.04  0.00  0.00  0.94  0.02  0.00  0.00  0.78  0.00
  G13                     1.00   0.04  0.00  0.00  0.10  0.87  0.00  0.00  0.09  0.00
  G14                     1.00   0.04  0.00  0.00  0.02  0.94  0.00  0.00  0.00  0.00
  G29                     1.00   0.04  0.00  0.00  0.00  0.00  0.00  0.96  0.00  0.00
  G15                     1.00   0.04  0.01  0.00  0.03  0.93  0.00  0.00  0.96  0.00
  G30                     1.00   0.04  0.08  0.00  0.00  0.00  0.88  0.00  0.00  0.00
  G31                     1.00   0.04  0.00  0.00  0.02  0.94  0.00  0.00  0.02  0.00
  G33                     1.00   0.04  0.00  0.00  0.00  0.96  0.00  0.00  0.00  0.00
  G34                     1.00   0.04  0.00  0.00  0.92  0.05  0.00  0.00  0.85  0.00
  G35                     1.00   0.04  0.00  0.00  0.00  0.96  0.00  0.00  0.94  0.00
  G36                     1.00   0.04  0.00  0.00  0.91  0.06  0.00  0.00  0.87  0.00
  G37                     1.00   0.04  0.00  0.00  0.00  0.08  0.00  0.88  0.07  0.00
  G32                     1.00   0.04  0.00  0.00  0.91  0.05  0.00  0.00  0.83  0.00
  G57                     1.00   0.04  0.00  0.00  0.00  0.96  0.00  0.00  0.29  0.00
  G58                     1.00   0.04  0.00  0.00  0.00  0.96  0.00  0.00  0.95  0.00
  G59                     1.00   0.04  0.00  0.00  0.00  0.00  0.00  0.96  0.00  0.00
  G61                     1.00   0.04  0.00  0.00  0.07  0.90  0.00  0.00  0.90  0.00
  G63                     1.00   0.04  0.00  0.00  0.05  0.92  0.00  0.00  0.61  0.00
  G64                     1.00   0.04  0.00  0.00  0.84  0.12  0.00  0.00  0.91  0.00
  G66                     1.00   0.04  0.00  0.00  0.33  0.64  0.00  0.00  0.04  0.00
  G65                     1.00   0.04  0.00  0.00  0.01  0.95  0.00  0.00  0.44  0.00
  G67                     1.00   0.04  0.00  0.00  0.01  0.95  0.00  0.00  0.02  0.00
  G68                     1.00   0.04  0.00  0.00  0.90  0.07  0.00  0.00  0.93  0.00
  G69                     1.00   0.04  0.00  0.00  0.00  0.96  0.00  0.00  0.14  0.00
  G70                     1.00   0.04  0.00  0.00  0.90  0.06  0.00  0.00  0.94  0.00
  G71                     1.00   0.04  0.00  0.00  0.00  0.96  0.00  0.00  0.95  0.00
  G72                     1.00   0.04  0.00  0.00  0.90  0.07  0.00  0.00  0.94  0.00
  G73                     1.00   0.04  0.00  0.00  0.00  0.96  0.00  0.00  0.94  0.00
  G74                     1.00   0.04  0.00  0.00  0.00  0.96  0.00  0.00  0.79  0.00
  G75                     1.00   0.04  0.00  0.00  0.01  0.96  0.00  0.00  0.40  0.00
  G76                     1.00   0.04  0.00  0.00  0.02  0.94  0.00  0.00  0.40  0.00
  G78                     1.00   0.04  0.00  0.00  0.11  0.85  0.00  0.00  0.05  0.00
  G77                     1.00   0.04  0.00  0.00  0.94  0.03  0.00  0.00  0.69  0.00
  G60                     1.00   0.04  0.02  0.00  0.94  0.00  0.00  0.00  0.00  0.00
  G62                     1.00   0.04  0.03  0.00  0.94  0.00  0.00  0.00  0.00  0.00
  G79                     1.00   0.04  0.00  0.00  0.06  0.91  0.00  0.00  0.02  0.00
  G80                     1.00   0.04  0.00  0.00  0.00  0.96  0.00  0.00  0.96  0.00
  G81                     1.00   0.04  0.00  0.00  0.96  0.01  0.00  0.00  0.00  0.00
  G82                     1.00   0.04  0.00  0.00  0.00  0.96  0.00  0.00  0.96  0.00
  G83                     1.00   0.04  0.00  0.00  0.00  0.96  0.00  0.00  0.09  0.00
  G84                     1.00   0.04  0.00  0.00  0.38  0.58  0.00  0.00  0.95  0.00
  G85                     1.00   0.04  0.36  0.00  0.61  0.00  0.00  0.00  0.26  0.00
  G86                     1.00   0.04  0.00  0.00  0.01  0.95  0.00  0.00  0.96  0.00
  G87                     1.00   0.04  0.00  0.00  0.00  0.96  0.00  0.00  0.96  0.00
  G88                     1.00   0.04  0.00  0.00  0.00  0.00  0.00  0.96  0.00  0.00
  G89                     1.00   0.04  0.00  0.00  0.05  0.03  0.00  0.88  0.06  0.00
  G90                     1.00   0.04  0.00  0.00  0.00  0.96  0.00  0.00  0.05  0.00
  G91                     1.00   0.04  0.00  0.00  0.01  0.96  0.00  0.00  0.96  0.00
  G92                     1.00   0.04  0.00  0.00  0.00  0.96  0.00  0.00  0.88  0.00
  G94                     1.00   0.04  0.00  0.00  0.93  0.03  0.00  0.00  0.94  0.00
  G93                     1.00   0.04  0.00  0.00  0.01  0.95  0.00  0.00  0.83  0.00
  G95                     1.00   0.04  0.00  0.00  0.02  0.94  0.00  0.00  0.32  0.00
  G96                     1.00   0.04  0.00  0.00  0.76  0.21  0.00  0.00  0.91  0.00
  G152                    1.00   0.04  0.00  0.00  0.03  0.93  0.00  0.00  0.32  0.00
  G153                    1.00   0.04  0.00  0.00  0.00  0.96  0.00  0.00  0.19  0.00
  
  
  *************************
  Conduit Surcharge Summary
  *************************
  
  ----------------------------------------------------------------------------
                                                           Hours        Hours 
                         --------- Hours Full --------   Above Full   Capacity
  Conduit                Both Ends  Upstream  Dnstream   Normal Flow   Limited
  ----------------------------------------------------------------------------
  G1                          0.17      0.17      0.18      0.01         0.01
  G2                          0.18      0.18      0.20      0.01         0.01
  G3                          0.19      0.19      0.20      0.01         0.01
  G4                          0.20      0.20      0.22      0.01         0.01
  G5                          0.21      0.21      0.22      0.01         0.01
  G6                          0.22      0.22      0.23      0.19         0.19
  G7                          0.23      0.23      0.25      0.22         0.22
  G8                          0.21      0.21      0.25      0.01         0.01
  G38                         0.08      0.08      0.11      0.01         0.01
  G39                         0.11      0.11      0.18      0.01         0.01
  G40                         0.16      0.16      0.18      0.01         0.01
  G41                         0.17      0.18      0.17      0.19         0.17
  G42                         0.16      0.16      0.17      0.01         0.01
  G43                         0.17      0.17      0.17      0.09         0.08
  G44                         0.16      0.16      0.17      0.01         0.01
  G45                         0.17      0.17      0.17      0.18         0.16
  G46                         0.16      0.16      0.17      0.01         0.01
  G47                         0.17      0.17      0.18      0.16         0.16
  G48                         0.16      0.16      0.18      0.01         0.01
  G49                         0.01      0.18      0.01      0.18         0.01
  G16                         0.05      0.05      0.06      0.01         0.01
  G17                         0.06      0.06      0.10      0.01         0.01
  G18                         0.05      0.05      0.10      0.01         0.01
  G19                         0.10      0.10      0.14      0.07         0.07
  G20                         0.05      0.05      0.08      0.01         0.01
  G21                         0.08      0.08      0.14      0.01         0.01
  G22                         0.06      0.06      0.14      0.01         0.01
  G23                         0.01      0.14      0.01      0.16         0.01
  G26                         0.01      0.01      0.04      0.01         0.01
  G9                          0.16      0.25      0.16      0.28         0.16
  G10                         0.01      0.01      0.04      0.01         0.01
  G11                         0.01      0.01      0.02      0.01         0.01
  G12                         0.03      0.03      0.18      0.01         0.01
  G13                         0.02      0.02      0.05      0.01         0.01
  G14                         0.01      0.05      0.01      0.24         0.01
  G30                         0.01      0.01      1.67      0.01         0.01
  G57                         0.01      0.01      0.01      0.01         0.01
  G61                         0.01      0.01      0.03      0.01         0.01
  G63                         0.03      0.03      0.05      0.01         0.01
  G64                         0.05      0.05      0.11      0.03         0.02
  G66                         0.11      0.18      0.11      0.33         0.11
  G65                         0.01      0.01      0.01      0.03         0.01
  G77                         0.01      0.01      0.06      0.01         0.01
  G62                         0.03      0.03      0.03      0.01         0.01
  G84                         0.01      0.01      0.21      0.01         0.01
  G152                        0.01      0.01      0.01      0.06         0.01
  

  Analysis begun on:  Thu Aug 21 12:32:54 2025
  Analysis ended on:  Thu Aug 21 12:33:01 2025
  Total elapsed time: 00:00:07