
  EPA STORM WATER MANAGEMENT MODEL - VERSION 5.2 (Build 5.2.4)
  PYSWMM TOOLKIT API - VERSION v1.0 (2023-11-27)
  ------------------------------------------------------------

  test 
  
  ****************
  Analysis Options
  ****************
  Flow Units ............... LPS
  Process Models:
    Rainfall/Runoff ........ YES
    RDII ................... NO
    Snowmelt ............... NO
    Groundwater ............ NO
    Flow Routing ........... YES
    Ponding Allowed ........ YES
    Water Quality .......... NO
  Infiltration Method ...... CURVE_NUMBER
  Flow Routing Method ...... DYNWAVE
  Surcharge Method ......... EXTRAN
  Starting Date ............ 11/13/2024 00:00:00
  Ending Date .............. 11/13/2024 00:45:00
  Antecedent Dry Days ...... 7.0
  Report Time Step ......... 00:05:00
  Wet Time Step ............ 00:01:00
  Dry Time Step ............ 01:00:00
  Routing Time Step ........ 0.60 sec
  Variable Time Step ....... YES
  Maximum Trials ........... 8
  Number of Threads ........ 1
  Head Tolerance ........... 0.001500 m
  
  
  **************************        Volume         Depth
  Runoff Quantity Continuity     hectare-m            mm
  **************************     ---------       -------
  Total Precipitation ......         0.296        31.900
  Evaporation Loss .........         0.000         0.000
  Infiltration Loss ........         0.044         4.716
  Surface Runoff ...........         0.248        26.716
  Final Storage ............         0.004         0.458
  Continuity Error (%) .....         0.032
  
  
  **************************        Volume        Volume
  Flow Routing Continuity        hectare-m      10^6 ltr
  **************************     ---------     ---------
  Dry Weather Inflow .......         0.000         0.000
  Wet Weather Inflow .......         0.248         2.476
  Groundwater Inflow .......         0.000         0.000
  RDII Inflow ..............         0.000         0.000
  External Inflow ..........         0.000         0.000
  External Outflow .........         0.247         2.469
  Flooding Loss ............         0.000         0.000
  Evaporation Loss .........         0.000         0.000
  Exfiltration Loss ........         0.000         0.000
  Initial Stored Volume ....         0.000         0.000
  Final Stored Volume ......         0.001         0.007
  Continuity Error (%) .....        -0.019
  
  
  *************************
  Highest Continuity Errors
  *************************
  Node P31 (2.64%)
  
  
  ***************************
  Time-Step Critical Elements
  ***************************
  None
  
  
  ********************************
  Highest Flow Instability Indexes
  ********************************
  Link G66 (18)
  Link G8 (11)
  Link G79 (10)
  Link G30 (9)
  Link G3 (6)
  
  
  *********************************
  Most Frequent Nonconverging Nodes
  *********************************
  Node E1 (5.98%)
  Node E32 (5.98%)
  Node E33 (5.98%)
  Node P5 (1.15%)
  Node P6 (1.13%)
  
  
  *************************
  Routing Time Step Summary
  *************************
  Minimum Time Step           :     0.40 sec
  Average Time Step           :     0.50 sec
  Maximum Time Step           :     0.60 sec
  % of Time in Steady State   :     0.00
  Average Iterations per Step :     2.56
  % of Steps Not Converging   :     5.98
  Time Step Frequencies       :
      0.600 -  0.579 sec      :    99.11 %
      0.579 -  0.558 sec      :     0.11 %
      0.558 -  0.538 sec      :     0.04 %
      0.538 -  0.519 sec      :     0.07 %
      0.519 -  0.500 sec      :     0.66 %
  
  
  ***************************
  Subcatchment Runoff Summary
  ***************************
  
  ------------------------------------------------------------------------------------------------------------------------------
                            Total      Total      Total      Total     Imperv       Perv      Total       Total     Peak  Runoff
                           Precip      Runon       Evap      Infil     Runoff     Runoff     Runoff      Runoff   Runoff   Coeff
  Subcatchment                 mm         mm         mm         mm         mm         mm         mm    10^6 ltr      LPS
  ------------------------------------------------------------------------------------------------------------------------------
  B140                      31.90       0.00       0.00       3.53      26.68       1.60      28.12        0.02    27.02   0.881
  B139                      31.90       0.00       0.00       3.89      26.14       1.75      27.71        0.02    26.27   0.869
  B141                      31.90       0.00       0.00       4.38      25.35       2.09      27.22        0.01    12.62   0.853
  B142                      31.90       0.00       0.00       4.38      25.35       2.09      27.22        0.01    12.62   0.853
  B144                      31.90       0.00       0.00       4.38      25.35       2.09      27.22        0.01    12.62   0.853
  B145                      31.90       0.00       0.00       4.38      25.35       2.09      27.22        0.01    12.62   0.853
  B146                      31.90       0.00       0.00       4.38      25.35       2.09      27.22        0.01    12.62   0.853
  B147                      31.90       0.00       0.00       4.38      25.35       2.09      27.22        0.01    12.62   0.853
  B148                      31.90       0.00       0.00       4.38      25.35       2.09      27.22        0.01    12.62   0.853
  B149                      31.90       0.00       0.00       3.61      26.53       1.62      27.99        0.02    25.05   0.877
  B108                      31.90       0.00       0.00       4.50      25.27       1.92      27.00        0.01    12.19   0.846
  B42                       31.90       0.00       0.00       4.56      25.26       1.89      26.96        0.01    12.13   0.845
  B40                       31.90       0.00       0.00       4.56      25.26       1.89      26.96        0.01    12.13   0.845
  B38                       31.90       0.00       0.00       4.56      25.26       1.89      26.96        0.01    12.13   0.845
  B36                       31.90       0.00       0.00       4.56      25.26       1.89      26.96        0.01    12.13   0.845
  B34                       31.90       0.00       0.00       4.56      25.26       1.89      26.96        0.01    12.13   0.845
  B32                       31.90       0.00       0.00       4.56      25.26       1.89      26.96        0.01    12.13   0.845
  B30                       31.90       0.00       0.00       4.56      25.26       1.89      26.96        0.01    12.13   0.845
  B9                        31.90       0.00       0.00       4.56      25.26       1.89      26.96        0.01    12.13   0.845
  B7                        31.90       0.00       0.00       4.56      25.26       1.89      27.15        0.01    12.19   0.851
  B5                        31.90       0.00       0.00       4.56      25.26       1.89      26.96        0.01    12.13   0.845
  B3                        31.90       0.00       0.00       4.56      25.26       1.89      26.96        0.01    12.13   0.845
  B1                        31.90       0.00       0.00       4.56      25.26       1.89      27.15        0.01    12.19   0.851
  B23                       31.90       0.00       0.00       4.56      25.26       1.89      27.15        0.01    12.19   0.851
  B21                       31.90       0.00       0.00       4.56      25.26       1.89      26.96        0.01    12.13   0.845
  B19                       31.90       0.00       0.00       4.56      25.26       1.89      26.96        0.01    12.13   0.845
  B17                       31.90       0.00       0.00       4.56      25.26       1.89      26.96        0.01    12.13   0.845
  B15                       31.90       0.00       0.00       4.56      25.26       1.89      26.96        0.01    12.13   0.845
  B13                       31.90       0.00       0.00       4.56      25.26       1.89      26.96        0.01    12.13   0.845
  B11                       31.90       0.00       0.00       4.56      25.26       1.89      26.96        0.01    12.13   0.845
  B129                      31.90       0.00       0.00       4.38      25.35       2.09      27.23        0.01    12.62   0.853
  B127                      31.90       0.00       0.00       4.38      25.35       2.09      27.23        0.01    12.62   0.853
  B125                      31.90       0.00       0.00       4.38      25.35       2.09      27.23        0.01    12.62   0.853
  B123                      31.90       0.00       0.00       4.44      25.32       2.02      27.14        0.01    12.42   0.851
  B121                      31.90       0.00       0.00       4.44      25.32       2.02      27.14        0.01    12.42   0.851
  B120                      31.90       0.00       0.00       4.44      25.32       2.02      27.14        0.01    12.42   0.851
  B119                      31.90       0.00       0.00       4.44      25.32       2.02      27.14        0.01    12.42   0.851
  B113                      31.90       0.00       0.00       4.50      25.27       1.92      27.00        0.01    12.19   0.846
  B111                      31.90       0.00       0.00       4.50      25.27       1.92      27.00        0.01    12.19   0.846
  B109                      31.90       0.00       0.00       4.50      25.27       1.92      27.00        0.01    12.19   0.846
  B107                      31.90       0.00       0.00       4.50      25.27       1.92      27.00        0.01    12.19   0.846
  B105                      31.90       0.00       0.00       4.50      25.27       1.92      27.00        0.01    12.19   0.846
  B103                      31.90       0.00       0.00       4.50      25.27       1.92      27.00        0.01    12.19   0.846
  B101                      31.90       0.00       0.00       4.50      25.27       1.92      27.00        0.01    12.19   0.846
  BB118                     31.90       0.00       0.00       3.66      26.52       1.60      27.96        0.02    24.94   0.876
  B99                       31.90       0.00       0.00       3.76      26.40       1.47      27.72        0.02    24.31   0.869
  B28                       31.90       0.00       0.00       3.81      26.37       1.44      27.67        0.02    24.15   0.867
  B115                      31.90       0.00       0.00       4.50      25.27       1.92      27.00        0.01    12.19   0.846
  B22                       31.90       0.00       0.00       4.56      25.26       1.89      26.96        0.01    12.13   0.845
  B20                       31.90       0.00       0.00       4.56      25.26       1.89      26.96        0.01    12.13   0.845
  B18                       31.90       0.00       0.00       4.56      25.26       1.89      26.96        0.01    12.13   0.845
  B16                       31.90       0.00       0.00       4.56      25.26       1.89      26.96        0.01    12.13   0.845
  B14                       31.90       0.00       0.00       4.56      25.26       1.89      26.96        0.01    12.13   0.845
  B12                       31.90       0.00       0.00       4.56      25.26       1.89      26.96        0.01    12.13   0.845
  B10                       31.90       0.00       0.00       4.56      25.26       1.89      26.96        0.01    12.13   0.845
  B8                        31.90       0.00       0.00       4.56      25.26       1.89      27.15        0.01    12.19   0.851
  B6                        31.90       0.00       0.00       4.56      25.26       1.89      26.96        0.01    12.13   0.845
  B4                        31.90       0.00       0.00       4.56      25.26       1.89      26.96        0.01    12.13   0.845
  B2                        31.90       0.00       0.00       4.56      25.26       1.89      26.96        0.01    12.13   0.845
  B29                       31.90       0.00       0.00       4.56      25.26       1.89      26.96        0.01    12.13   0.845
  B31                       31.90       0.00       0.00       4.56      25.26       1.89      26.96        0.01    12.13   0.845
  B33                       31.90       0.00       0.00       4.56      25.26       1.89      26.96        0.01    12.13   0.845
  B35.                      31.90       0.00       0.00       4.56      25.26       1.89      26.96        0.01    12.13   0.845
  B37                       31.90       0.00       0.00       4.56      25.26       1.89      26.96        0.01    12.13   0.845
  B39                       31.90       0.00       0.00       4.56      25.26       1.89      27.15        0.01    12.19   0.851
  B41                       31.90       0.00       0.00       4.56      25.26       1.89      26.96        0.01    12.13   0.845
  B43                       31.90       0.00       0.00       4.56      25.26       1.89      26.96        0.01    12.13   0.845
  B27                       31.90       0.00       0.00       3.81      26.37       1.44      27.67        0.02    24.15   0.867
  B25                       31.90       0.00       0.00       3.81      26.37       1.44      27.67        0.02    24.15   0.867
  B24                       31.90       0.00       0.00       3.81      26.37       1.44      27.81        0.02    24.23   0.872
  B67                       31.90       0.00       0.00       3.81      26.37       1.44      27.67        0.02    24.15   0.867
  B68                       31.90       0.00       0.00       3.81      26.37       1.44      27.67        0.02    24.15   0.867
  B98                       31.90       0.00       0.00       3.76      26.40       1.47      27.72        0.02    24.31   0.869
  B97                       31.90       0.00       0.00       3.86      26.29       1.38      27.53        0.02    23.75   0.863
  B46                       31.90       0.00       0.00       3.93      26.14       1.60      27.59        0.01    16.53   0.865
  B45                       31.90       0.00       0.00       3.93      26.25       1.42      27.53        0.02    27.89   0.863
  B47                       31.90       0.00       0.00       4.06      26.05       1.46      27.36        0.02    28.31   0.858
  B44                       31.90       0.00       0.00       4.62      25.22       1.82      26.86        0.01    16.00   0.842
  B122                      31.90       0.00       0.00       3.66      26.52       1.61      27.97        0.02    24.97   0.877
  B124                      31.90       0.00       0.00       4.44      25.32       2.02      27.14        0.01    12.42   0.851
  B126                      31.90       0.00       0.00       4.44      25.32       2.02      27.14        0.01    12.42   0.851
  B128                      31.90       0.00       0.00       4.44      25.32       2.02      27.14        0.01    12.42   0.851
  B130                      31.90       0.00       0.00       4.44      25.32       2.02      27.14        0.01    12.42   0.851
  B132                      31.90       0.00       0.00       4.38      25.35       2.09      27.23        0.01    12.62   0.853
  B135                      31.90       0.00       0.00       4.38      25.35       2.09      27.23        0.01    12.62   0.853
  B137                      31.90       0.00       0.00       4.38      25.35       2.09      27.23        0.01    12.62   0.853
  BBB118                    31.90       0.00       0.00       3.76      26.40       1.47      27.72        0.02    24.31   0.869
  B48                       31.90       0.00       0.00       3.81      26.37       1.44      27.67        0.02    24.15   0.867
  BB117                     31.90       0.00       0.00       3.76      26.40       1.47      27.72        0.02    24.31   0.869
  B83                       31.90       0.00       0.00       4.56      25.26       1.89      26.96        0.01    12.13   0.845
  B81                       31.90       0.00       0.00       4.56      25.26       1.89      26.96        0.01    12.13   0.845
  B79                       31.90       0.00       0.00       4.56      25.26       1.89      26.96        0.01    12.13   0.845
  B77                       31.90       0.00       0.00       4.56      25.26       1.89      26.96        0.01    12.13   0.845
  B75                       31.90       0.00       0.00       4.56      25.26       1.89      26.96        0.01    12.13   0.845
  B73                       31.90       0.00       0.00       4.56      25.26       1.89      26.96        0.01    12.13   0.845
  B71                       31.90       0.00       0.00       4.56      25.26       1.89      26.96        0.01    12.13   0.845
  B69                       31.90       0.00       0.00       4.56      25.26       1.89      26.96        0.01    12.13   0.845
  B70                       31.90       0.00       0.00       4.56      25.26       1.89      26.96        0.01    12.13   0.845
  B72                       31.90       0.00       0.00       4.56      25.26       1.89      26.96        0.01    12.13   0.845
  B74                       31.90       0.00       0.00       4.56      25.26       1.89      26.96        0.01    12.13   0.845
  B76                       31.90       0.00       0.00       4.56      25.26       1.89      26.96        0.01    12.13   0.845
  B78                       31.90       0.00       0.00       4.56      25.26       1.89      26.96        0.01    12.13   0.845
  B80                       31.90       0.00       0.00       4.56      25.26       1.89      26.96        0.01    12.13   0.845
  B82                       31.90       0.00       0.00       4.56      25.26       1.89      26.96        0.01    12.13   0.845
  B84                       31.90       0.00       0.00       4.56      25.26       1.89      26.96        0.01    12.13   0.845
  B85                       31.90       0.00       0.00       4.50      25.27       1.92      27.00        0.01    12.19   0.846
  B86                       31.90       0.00       0.00       4.50      25.27       1.92      27.00        0.01    12.19   0.846
  B88                       31.90       0.00       0.00       4.50      25.27       1.92      27.00        0.01    12.19   0.846
  B90                       31.90       0.00       0.00       4.50      25.27       1.92      27.00        0.01    12.19   0.846
  B92                       31.90       0.00       0.00       4.50      25.27       1.92      27.00        0.01    12.19   0.846
  B94                       31.90       0.00       0.00       4.50      25.27       1.92      27.00        0.01    12.19   0.846
  B96                       31.90       0.00       0.00       4.50      25.27       1.92      27.00        0.01    12.19   0.846
  B95                       31.90       0.00       0.00       4.50      25.27       1.92      27.00        0.01    12.19   0.846
  B93                       31.90       0.00       0.00       4.50      25.28       1.92      27.01        0.01    12.19   0.847
  B91                       31.90       0.00       0.00       4.50      25.27       1.92      27.00        0.01    12.19   0.846
  B89                       31.90       0.00       0.00       4.50      25.27       1.92      27.00        0.01    12.19   0.846
  B87                       31.90       0.00       0.00       4.50      25.27       1.92      27.00        0.01    12.19   0.846
  B116                      31.90       0.00       0.00       4.50      25.27       1.92      27.00        0.01    12.19   0.846
  B114                      31.90       0.00       0.00       4.50      25.27       1.92      27.00        0.01    12.19   0.846
  B112                      31.90       0.00       0.00       4.50      25.27       1.92      27.00        0.01    12.19   0.846
  B110                      31.90       0.00       0.00       4.50      25.27       1.92      27.00        0.01    12.19   0.846
  B50                       31.90       0.00       0.00       4.56      25.26       1.89      26.96        0.01    12.13   0.845
  B52                       31.90       0.00       0.00       4.56      25.26       1.89      26.96        0.01    12.13   0.845
  B54                       31.90       0.00       0.00       4.56      25.26       1.89      26.96        0.01    12.13   0.845
  B56                       31.90       0.00       0.00       4.56      25.26       1.89      26.96        0.01    12.13   0.845
  B58                       31.90       0.00       0.00       4.56      25.26       1.89      26.96        0.01    12.13   0.845
  B60                       31.90       0.00       0.00       4.56      25.26       1.89      26.96        0.01    12.13   0.845
  B106                      31.90       0.00       0.00       4.50      25.27       1.92      27.00        0.01    12.19   0.846
  B104                      31.90       0.00       0.00       4.50      25.27       1.92      27.00        0.01    12.19   0.846
  B102                      31.90       0.00       0.00       4.50      25.27       1.92      27.00        0.01    12.19   0.846
  B100                      31.90       0.00       0.00       3.76      26.40       1.47      27.72        0.02    24.31   0.869
  B66                       31.90       0.00       0.00       3.81      26.37       1.44      27.67        0.02    24.15   0.867
  B62                       31.90       0.00       0.00       4.56      25.26       1.89      26.96        0.01    12.13   0.845
  B64                       31.90       0.00       0.00       4.56      25.26       1.89      26.96        0.01    12.13   0.845
  B65                       31.90       0.00       0.00       3.81      26.37       1.44      27.67        0.02    24.15   0.867
  B63                       31.90       0.00       0.00       4.56      25.26       1.89      26.96        0.01    12.13   0.845
  B61                       31.90       0.00       0.00       4.56      25.26       1.89      26.96        0.01    12.13   0.845
  B59                       31.90       0.00       0.00       4.56      25.26       1.89      26.96        0.01    12.13   0.845
  B57                       31.90       0.00       0.00       4.56      25.26       1.89      26.96        0.01    12.13   0.845
  B55                       31.90       0.00       0.00       4.56      25.26       1.89      26.96        0.01    12.13   0.845
  B53                       31.90       0.00       0.00       4.56      25.26       1.89      26.96        0.01    12.13   0.845
  B51                       31.90       0.00       0.00       4.56      25.26       1.89      26.96        0.01    12.13   0.845
  B49                       31.90       0.00       0.00       4.56      25.26       1.89      26.96        0.01    12.13   0.845
  B138                      31.90       0.00       0.00       3.36      26.93       1.52      28.30        0.02    28.52   0.887
  B188                      31.90       0.00       0.00       3.85      26.24       1.68      27.93        0.02    27.27   0.875
  B189                      31.90       0.00       0.00       4.38      25.34       2.06      27.40        0.01    12.66   0.859
  B190                      31.90       0.00       0.00       4.38      25.34       2.06      27.40        0.01    12.66   0.859
  B191                      31.90       0.00       0.00       4.38      25.34       2.06      27.40        0.01    12.66   0.859
  B192                      31.90       0.00       0.00       4.38      25.34       2.06      27.40        0.01    12.66   0.859
  B193                      31.90       0.00       0.00       4.38      25.34       2.06      27.40        0.01    12.66   0.859
  B194                      31.90       0.00       0.00       3.61      26.53       1.62      28.15        0.02    25.19   0.883
  B195                      31.90       0.00       0.00       3.81      26.37       1.44      27.82        0.02    24.25   0.872
  B196                      31.90       0.00       0.00       4.56      25.26       1.90      27.16        0.01    12.20   0.851
  B197                      31.90       0.00       0.00       4.56      25.26       1.90      27.16        0.01    12.20   0.851
  B198                      31.90       0.00       0.00       4.56      25.26       1.90      27.16        0.01    12.20   0.851
  B199                      31.90       0.00       0.00       4.56      25.26       1.90      27.16        0.01    12.20   0.851
  B204                      31.90       0.00       0.00       3.81      26.37       1.44      27.82        0.02    24.25   0.872
  B203                      31.90       0.00       0.00       4.56      25.26       1.90      27.16        0.01    12.20   0.851
  B202                      31.90       0.00       0.00       4.56      25.26       1.90      27.16        0.01    12.20   0.851
  B200                      31.90       0.00       0.00       4.56      25.26       1.90      27.16        0.01    12.20   0.851
  B201                      31.90       0.00       0.00       4.56      25.26       1.90      27.16        0.01    12.20   0.851
  B176                      31.90       0.00       0.00       3.34      26.94       1.49      28.29        0.02    27.85   0.887
  B177                      31.90       0.00       0.00       4.38      25.34       2.06      27.20        0.01    12.55   0.853
  B178                      31.90       0.00       0.00       4.38      25.34       2.06      27.40        0.01    12.66   0.859
  B179                      31.90       0.00       0.00       4.38      25.34       2.06      27.40        0.01    12.66   0.859
  B180                      31.90       0.00       0.00       4.38      25.34       2.06      27.40        0.01    12.66   0.859
  B181                      31.90       0.00       0.00       4.38      25.34       2.06      27.40        0.01    12.66   0.859
  B182                      31.90       0.00       0.00       4.38      25.34       2.06      27.40        0.01    12.66   0.859
  B183                      31.90       0.00       0.00       4.56      25.26       1.90      27.16        0.01    12.20   0.851
  B184                      31.90       0.00       0.00       4.56      25.26       1.90      27.16        0.01    12.20   0.851
  B185                      31.90       0.00       0.00       4.56      25.26       1.90      27.16        0.01    12.20   0.851
  B186                      31.90       0.00       0.00       4.56      25.26       1.90      27.16        0.01    12.20   0.851
  B187                      31.90       0.00       0.00       3.81      26.37       1.44      27.67        0.02    24.17   0.868
  B165                      31.90       0.00       0.00       3.66      26.48       1.56      27.88        0.02    24.73   0.874
  BB166                     31.90       0.00       0.00       4.44      25.31       2.00      27.32        0.01    12.47   0.856
  BB167                     31.90       0.00       0.00       4.44      25.31       2.00      27.32        0.01    12.47   0.856
  B168                      31.90       0.00       0.00       4.38      25.35       2.08      27.43        0.01    12.73   0.860
  B169                      31.90       0.00       0.00       4.38      25.35       2.08      27.22        0.01    12.61   0.853
  B170                      31.90       0.00       0.00       4.38      25.35       2.08      27.22        0.01    12.61   0.853
  B171                      31.90       0.00       0.00       4.38      25.35       2.08      27.22        0.01    12.61   0.853
  B172                      31.90       0.00       0.00       4.38      25.35       2.08      27.22        0.01    12.61   0.853
  B173                      31.90       0.00       0.00       4.38      25.35       2.10      27.24        0.01    12.66   0.854
  B174                      31.90       0.00       0.00       4.38      25.35       2.10      27.24        0.01    12.66   0.854
  B175                      31.90       0.00       0.00       3.63      26.53       1.67      28.03        0.02    25.92   0.879
  B150                      31.90       0.00       0.00       3.04      27.36       1.43      28.79        0.02    26.74   0.903
  B151                      31.90       0.00       0.00       4.11      25.76       1.96      27.73        0.01    15.03   0.869
  B152                      31.90       0.00       0.00       4.17      25.67       1.99      27.66        0.01    14.99   0.867
  B153                      31.90       0.00       0.00       4.23      25.57       2.01      27.58        0.01    13.82   0.864
  B154                      31.90       0.00       0.00       4.32      25.44       2.04      27.48        0.01    14.36   0.861
  B155                      31.90       0.00       0.00       4.32      25.44       2.03      27.47        0.01    14.95   0.861
  B157                      31.90       0.00       0.00       4.34      25.41       2.06      27.47        0.01    13.06   0.861
  B158                      31.90       0.00       0.00       4.38      25.35       2.08      27.22        0.01    13.11   0.853
  B159                      31.90       0.00       0.00       4.50      25.21       2.01      27.02        0.01    13.66   0.847
  B160                      31.90       0.00       0.00       4.38      25.35       2.08      27.22        0.01    12.61   0.853
  B161                      31.90       0.00       0.00       4.67      25.04       2.02      26.86        0.01    15.75   0.842
  B162                      31.90       0.00       0.00       4.44      25.31       2.00      27.12        0.01    12.38   0.850
  B163                      31.90       0.00       0.00       3.99      26.05       1.63      27.52        0.02    28.23   0.863
  B164                      31.90       0.00       0.00       3.63      26.61       1.44      27.91        0.03    36.08   0.875
  B210                      31.90       0.00       0.00       8.55      20.57      11.23      21.51        0.21   203.89   0.674
  B205                      31.90       0.00       0.00       3.76      26.44       1.42      27.86        0.02    25.31   0.873
  B206                      31.90       0.00       0.00       4.63      25.16       1.90      27.06        0.01    13.27   0.848
  B207                      31.90       0.00       0.00       4.75      25.05       1.90      26.95        0.01    14.33   0.845
  B208                      31.90       0.00       0.00       4.82      24.94       1.90      26.84        0.01    15.77   0.841
  B209                      31.90       0.00       0.00       4.93      24.86       1.87      26.73        0.01    17.68   0.838
  B211                      31.90       0.00       0.00       3.92      26.19       1.45      27.64        0.02    26.78   0.866
  B212                      31.90       0.00       0.00       4.63      25.11       2.03      27.14        0.01    12.82   0.851
  B213                      31.90       0.00       0.00       4.69      25.00       2.03      27.03        0.01    14.38   0.847
  B214                      31.90       0.00       0.00       4.49      25.41       1.77      27.18        0.02    25.66   0.852
  B215                      31.90       0.00       0.00       4.74      24.93       2.03      26.96        0.01    20.21   0.845
  B216                      31.90       0.00       0.00       4.41      25.47       1.80      27.27        0.02    28.97   0.855
  B217                      31.90       0.00       0.00       4.50      25.29       1.96      27.25        0.01    12.34   0.854
  B218                      31.90       0.00       0.00       4.50      25.29       1.96      27.25        0.01    12.34   0.854
  B219                      31.90       0.00       0.00       4.50      25.29       1.96      27.25        0.01    12.34   0.854
  B220                      31.90       0.00       0.00       4.76      24.98       1.98      26.97        0.01    15.03   0.845
  B221                      31.90       0.00       0.00       4.02      26.05       1.67      27.71        0.02    34.62   0.869
  B224                      31.90       0.00       0.00       4.38      25.34       2.05      27.39        0.01    12.63   0.859
  B223                      31.90       0.00       0.00       4.38      25.34       2.05      27.39        0.01    12.63   0.859
  B222                      31.90       0.00       0.00       3.38      26.91       1.46      28.37        0.02    21.65   0.889
  
  
  ******************
  Node Depth Summary
  ******************
  
  ---------------------------------------------------------------------------------
                                 Average  Maximum  Maximum  Time of Max    Reported
                                   Depth    Depth      HGL   Occurrence   Max Depth
  Node                 Type       Meters   Meters   Meters  days hr:min      Meters
  ---------------------------------------------------------------------------------
  P1                   JUNCTION     0.12     1.00  1048.20     0  00:12        0.78
  P2                   JUNCTION     0.17     1.01  1048.03     0  00:12        0.94
  P3                   JUNCTION     0.21     1.23  1047.92     0  00:14        1.17
  P4                   JUNCTION     0.28     1.40  1047.92     0  00:14        1.34
  P5                   JUNCTION     0.28     1.45  1047.64     0  00:14        1.38
  P6                   JUNCTION     0.36     1.62  1047.63     0  00:14        1.55
  P7                   JUNCTION     0.37     1.56  1047.35     0  00:14        1.48
  P8                   JUNCTION     0.23     1.03  1046.57     0  00:14        0.99
  P9                   JUNCTION     0.32     1.20  1046.57     0  00:14        1.16
  P10                  JUNCTION     0.06     0.22  1045.16     0  00:14        0.19
  P11                  JUNCTION     0.16     0.38  1045.15     0  00:14        0.38
  P12                  JUNCTION     0.08     0.29  1044.79     0  00:14        0.28
  P13                  JUNCTION     0.18     0.46  1044.80     0  00:14        0.46
  P17                  JUNCTION     0.05     0.13  1046.28     0  00:12        0.12
  P18                  JUNCTION     0.09     0.30  1046.29     0  00:14        0.29
  P19                  JUNCTION     0.04     0.22  1046.18     0  00:14        0.22
  P20                  JUNCTION     0.14     0.97  1046.45     0  00:12        0.70
  P23                  JUNCTION     0.04     0.31  1045.97     0  00:13        0.31
  P24                  JUNCTION     0.17     0.75  1046.01     0  00:12        0.71
  P25                  JUNCTION     0.05     0.23  1044.95     0  00:14        0.15
  P26                  JUNCTION     0.13     0.34  1044.91     0  00:14        0.33
  P27                  JUNCTION     0.11     0.32  1044.53     0  00:14        0.32
  P28                  JUNCTION     0.14     0.36  1044.53     0  00:14        0.36
  P29                  JUNCTION     0.04     0.15  1044.17     0  00:15        0.13
  P30                  JUNCTION     0.13     0.34  1044.19     0  00:14        0.34
  P31                  JUNCTION     0.42     0.58  1043.97     0  00:06        0.53
  P32                  JUNCTION     0.18     0.43  1043.66     0  00:14        0.43
  P33                  JUNCTION     0.04     0.20  1042.64     0  00:15        0.18
  P34                  JUNCTION     0.14     0.33  1042.59     0  00:14        0.33
  P35                  JUNCTION     0.03     0.15  1040.83     0  00:15        0.13
  P36                  JUNCTION     0.12     0.29  1040.81     0  00:14        0.29
  P37                  JUNCTION     0.04     0.13  1037.57     0  00:15        0.11
  P38                  JUNCTION     0.13     0.31  1037.59     0  00:14        0.31
  P39                  JUNCTION     0.03     0.07  1048.24     0  00:14        0.07
  P40                  JUNCTION     0.06     0.21  1048.21     0  00:14        0.16
  P41                  JUNCTION     0.09     1.08  1048.57     0  00:12        0.67
  P42                  JUNCTION     0.23     1.25  1048.18     0  00:14        1.24
  P43                  JUNCTION     0.12     1.03  1047.94     0  00:12        0.96
  P44                  JUNCTION     0.20     1.16  1047.90     0  00:14        1.13
  P45                  JUNCTION     0.13     1.06  1047.35     0  00:14        1.03
  P46                  JUNCTION     0.21     1.23  1047.35     0  00:14        1.20
  P47                  JUNCTION     0.13     1.01  1046.34     0  00:12        0.98
  P48                  JUNCTION     0.21     1.16  1046.32     0  00:14        1.14
  P49                  JUNCTION     0.13     1.10  1045.61     0  00:11        0.90
  P50                  JUNCTION     0.22     1.17  1045.50     0  00:11        1.07
  P51                  JUNCTION     0.04     0.11  1042.82     0  00:15        0.09
  P52                  JUNCTION     0.12     0.30  1042.84     0  00:14        0.30
  P53                  JUNCTION     0.05     0.14  1038.71     0  00:14        0.14
  P54                  JUNCTION     0.12     0.29  1038.69     0  00:14        0.29
  P55                  JUNCTION     0.16     0.41  1037.67     0  00:14        0.41
  P57                  JUNCTION     0.14     0.35  1037.20     0  00:14        0.35
  P58                  JUNCTION     0.23     0.58  1036.25     0  00:14        0.58
  P22                  JUNCTION     0.06     0.68  1046.21     0  00:12        0.43
  P21                  JUNCTION     0.04     0.28  1045.98     0  00:14        0.27
  P16                  JUNCTION     0.10     0.22  1044.25     0  00:14        0.22
  P14                  JUNCTION     0.22     0.52  1044.68     0  00:14        0.52
  P84                  JUNCTION     0.01     0.04  1044.32     0  00:13        0.04
  P85                  JUNCTION     0.02     0.06  1044.32     0  00:14        0.06
  P86                  JUNCTION     0.04     0.10  1040.61     0  00:14        0.10
  P87                  JUNCTION     0.07     0.20  1037.26     0  00:14        0.20
  P88                  JUNCTION     0.07     0.18  1036.83     0  00:14        0.17
  P89                  JUNCTION     0.24     0.59  1036.65     0  00:14        0.58
  P59                  JUNCTION     0.03     0.08  1047.76     0  00:14        0.08
  P61                  JUNCTION     0.08     0.21  1046.80     0  00:14        0.21
  P62                  JUNCTION     0.10     0.28  1046.50     0  00:14        0.27
  P63                  JUNCTION     0.11     0.29  1046.30     0  00:14        0.29
  P64                  JUNCTION     0.16     0.36  1045.84     0  00:14        0.36
  P65                  JUNCTION     0.18     0.40  1045.91     0  00:14        0.40
  P66                  JUNCTION     0.15     0.33  1045.65     0  00:14        0.32
  P67                  JUNCTION     0.12     0.26  1044.64     0  00:14        0.26
  P68                  JUNCTION     0.05     0.11  1044.69     0  00:14        0.11
  P69                  JUNCTION     0.12     0.26  1042.00     0  00:14        0.26
  P70                  JUNCTION     0.04     0.10  1042.04     0  00:14        0.10
  P71                  JUNCTION     0.13     0.29  1038.56     0  00:14        0.29
  P72                  JUNCTION     0.04     0.12  1038.59     0  00:10        0.12
  P73                  JUNCTION     0.14     0.34  1037.55     0  00:14        0.34
  P74                  JUNCTION     0.19     0.45  1037.25     0  00:14        0.45
  P75                  JUNCTION     0.19     0.46  1037.03     0  00:14        0.46
  P76                  JUNCTION     0.21     0.52  1036.74     0  00:14        0.52
  P77                  JUNCTION     0.08     0.33  1036.75     0  00:14        0.31
  P78                  JUNCTION     0.09     0.23  1039.02     0  00:14        0.23
  P79                  JUNCTION     0.06     0.16  1038.75     0  00:14        0.16
  P80                  JUNCTION     0.05     0.14  1043.35     0  00:14        0.14
  P81                  JUNCTION     0.06     0.15  1043.37     0  00:14        0.15
  P82                  JUNCTION     0.04     0.11  1046.29     0  00:14        0.11
  P83                  JUNCTION     0.07     0.17  1046.37     0  00:13        0.17
  P60                  JUNCTION     0.07     0.17  1047.32     0  00:14        0.17
  P62A                 JUNCTION     0.08     0.26  1046.51     0  00:14        0.26
  P61A                 JUNCTION     0.07     0.20  1046.80     0  00:13        0.20
  P90                  JUNCTION     0.04     0.10  1047.23     0  00:14        0.10
  P91                  JUNCTION     0.04     0.10  1047.03     0  00:14        0.10
  P92                  JUNCTION     0.04     0.11  1046.20     0  00:14        0.11
  P93                  JUNCTION     0.07     0.19  1046.09     0  00:14        0.19
  P94                  JUNCTION     0.03     0.08  1045.82     0  00:14        0.08
  P95                  JUNCTION     0.08     0.21  1045.75     0  00:14        0.21
  P96                  JUNCTION     0.04     0.10  1045.48     0  00:14        0.10
  P97                  JUNCTION     0.08     0.21  1045.39     0  00:14        0.21
  E1                   OUTFALL      0.23     0.58  1035.58     0  00:14        0.58
  E32                  OUTFALL      0.23     0.59  1036.55     0  00:14        0.58
  E33                  OUTFALL      0.08     0.21  1044.59     0  00:14        0.21
  
  
  *******************
  Node Inflow Summary
  *******************
  
  -------------------------------------------------------------------------------------------------
                                  Maximum  Maximum                  Lateral       Total        Flow
                                  Lateral    Total  Time of Max      Inflow      Inflow     Balance
                                   Inflow   Inflow   Occurrence      Volume      Volume       Error
  Node                 Type           LPS      LPS  days hr:min    10^6 ltr    10^6 ltr     Percent
  -------------------------------------------------------------------------------------------------
  P1                   JUNCTION     48.58    48.58     0  00:14       0.034       0.034      -0.071
  P2                   JUNCTION     48.65   123.06     0  00:12      0.0341      0.0681      -0.054
  P3                   JUNCTION     48.51    81.80     0  00:11       0.034       0.034      -0.179
  P4                   JUNCTION     48.51   212.07     0  00:12       0.034       0.136       0.143
  P5                   JUNCTION     60.61    76.18     0  00:10      0.0427      0.0427      -0.049
  P6                   JUNCTION     48.58   264.71     0  00:14       0.034       0.213       0.046
  P7                   JUNCTION     48.30   291.45     0  00:14      0.0342       0.247       0.052
  P8                   JUNCTION     60.54    60.54     0  00:14      0.0426      0.0426      -0.027
  P9                   JUNCTION     36.39   372.94     0  00:14      0.0255       0.315       0.030
  P10                  JUNCTION     36.45    36.45     0  00:14      0.0255      0.0255       0.038
  P11                  JUNCTION     36.39   430.91     0  00:13      0.0255       0.366       0.029
  P12                  JUNCTION     52.15    52.15     0  00:14      0.0368      0.0368       0.010
  P13                  JUNCTION     44.66   518.76     0  00:14      0.0314       0.434       0.024
  P17                  JUNCTION     60.64    60.64     0  00:14      0.0425      0.0425       0.010
  P18                  JUNCTION     60.64   121.25     0  00:14      0.0425      0.0849       0.017
  P19                  JUNCTION     60.54    60.54     0  00:14      0.0426      0.0426       0.010
  P20                  JUNCTION     36.39   216.16     0  00:12      0.0255       0.153       0.018
  P23                  JUNCTION     24.15    24.15     0  00:14      0.0171      0.0171       0.020
  P24                  JUNCTION     24.15   276.60     0  00:14      0.0171       0.204       0.071
  P25                  JUNCTION     36.39    36.39     0  00:14      0.0255      0.0255       0.082
  P26                  JUNCTION     36.39   373.71     0  00:14      0.0255       0.255       0.024
  P27                  JUNCTION     36.39    36.39     0  00:14      0.0255      0.0255       0.009
  P28                  JUNCTION     36.39   423.94     0  00:14      0.0255       0.306       0.049
  P29                  JUNCTION     48.41    48.41     0  00:14      0.0341      0.0341       0.009
  P30                  JUNCTION     52.56   518.86     0  00:13      0.0372       0.377       0.030
  P31                  JUNCTION     25.05    25.05     0  00:14      0.0173      0.0173       2.708
  P32                  JUNCTION      0.00  1055.43     0  00:14           0       0.827       0.019
  P33                  JUNCTION     37.85    37.85     0  00:14      0.0257      0.0257       0.065
  P34                  JUNCTION      0.00  1107.62     0  00:14           0       0.853       0.020
  P35                  JUNCTION     25.23    25.23     0  00:14      0.0172      0.0172       0.023
  P36                  JUNCTION      0.00  1131.16     0  00:14           0        0.87       0.023
  P37                  JUNCTION     52.25    52.25     0  00:14      0.0358      0.0358      -0.013
  P38                  JUNCTION      0.00  1174.52     0  00:14           0       0.905       0.007
  P39                  JUNCTION     24.37    24.37     0  00:14       0.017       0.017       0.008
  P40                  JUNCTION     48.74    73.10     0  00:14       0.034       0.051      -0.057
  P41                  JUNCTION     60.31    60.31     0  00:14      0.0425      0.0425      -0.155
  P42                  JUNCTION     60.87   220.85     0  00:16      0.0426       0.136       0.158
  P43                  JUNCTION     36.50    74.54     0  00:12      0.0256      0.0257      -0.111
  P44                  JUNCTION     36.50   266.51     0  00:12      0.0256       0.187       0.091
  P45                  JUNCTION     48.74   105.99     0  00:12       0.034      0.0341       0.074
  P46                  JUNCTION     48.74   369.32     0  00:12       0.034       0.255       0.030
  P47                  JUNCTION     60.87    60.87     0  00:14      0.0426      0.0426       0.022
  P48                  JUNCTION     60.87   424.15     0  00:14      0.0426        0.34      -0.009
  P49                  JUNCTION     24.94    35.22     0  00:11      0.0173      0.0173      -0.061
  P50                  JUNCTION     24.97   462.87     0  00:14      0.0173       0.375       0.009
  P51                  JUNCTION     37.27    37.27     0  00:14      0.0256      0.0256      -0.008
  P52                  JUNCTION     37.27   537.12     0  00:14      0.0256       0.426       0.031
  P53                  JUNCTION     78.80    78.80     0  00:14      0.0539      0.0539      -0.002
  P54                  JUNCTION     50.28   664.78     0  00:14      0.0343       0.514       0.010
  P55                  JUNCTION     26.27   690.18     0  00:14      0.0181       0.532       0.014
  P57                  JUNCTION      0.00   689.58     0  00:14           0       0.532       0.132
  P58                  JUNCTION      0.00  1861.00     0  00:14           0        1.44      -0.014
  P22                  JUNCTION      0.00    40.36     0  00:12           0      0.0171      -0.189
  P21                  JUNCTION     24.15    26.24     0  00:12      0.0171      0.0171       0.053
  P16                  JUNCTION      0.00   517.36     0  00:14           0       0.433       0.034
  P14                  JUNCTION      0.00   517.61     0  00:14           0       0.434       0.052
  P84                  JUNCTION      0.00     0.33     0  00:09           0    4.15e-05       0.587
  P85                  JUNCTION     28.23    28.30     0  00:14      0.0198      0.0198       0.045
  P86                  JUNCTION     57.42    85.58     0  00:14      0.0395      0.0593      -0.018
  P87                  JUNCTION     28.86   113.98     0  00:14      0.0196      0.0789       0.039
  P88                  JUNCTION      0.00   113.39     0  00:14           0      0.0788       0.168
  P89                  JUNCTION      0.00  1170.75     0  00:14           0       0.905       0.023
  P59                  JUNCTION     52.87    52.87     0  00:14      0.0371      0.0371       0.004
  P61                  JUNCTION     33.44   112.75     0  00:14      0.0237      0.0801       0.024
  P62                  JUNCTION     52.91   166.46     0  00:14      0.0374       0.118       0.036
  P63                  JUNCTION     24.25   187.38     0  00:14      0.0172       0.134       0.059
  P64                  JUNCTION     36.61   424.07     0  00:14      0.0257       0.365       0.057
  P65                  JUNCTION    203.89   203.89     0  00:19       0.205       0.205       0.051
  P66                  JUNCTION     24.40   445.87     0  00:14      0.0171       0.382       0.079
  P67                  JUNCTION     60.85   561.18     0  00:14      0.0429       0.467       0.069
  P68                  JUNCTION     60.78    60.78     0  00:14      0.0428      0.0428       0.004
  P69                  JUNCTION     37.85   644.04     0  00:14       0.026       0.527       0.059
  P70                  JUNCTION     50.19    50.19     0  00:14      0.0344      0.0344      -0.008
  P71                  JUNCTION     50.65   754.48     0  00:14      0.0345       0.607       0.030
  P72                  JUNCTION     65.72    65.72     0  00:14      0.0451      0.0451      -0.005
  P73                  JUNCTION     27.27   779.87     0  00:14      0.0189       0.625       0.011
  P74                  JUNCTION      0.00   780.92     0  00:14           0       0.625       0.025
  P75                  JUNCTION      0.00   782.71     0  00:14           0       0.625       0.061
  P76                  JUNCTION      0.00   815.64     0  00:14           0       0.643       0.068
  P77                  JUNCTION     25.92    26.03     0  00:23      0.0178      0.0186       0.046
  P78                  JUNCTION     37.93   225.52     0  00:14      0.0257       0.156       0.018
  P79                  JUNCTION     41.74   266.54     0  00:14      0.0285       0.184      -0.019
  P80                  JUNCTION     50.55   189.02     0  00:13      0.0344        0.13       0.009
  P81                  JUNCTION     40.08    40.08     0  00:14      0.0273      0.0273       0.006
  P82                  JUNCTION     49.67   104.48     0  00:13      0.0344      0.0683      -0.021
  P83                  JUNCTION     48.46    48.46     0  00:14      0.0339      0.0339       0.113
  P60                  JUNCTION     26.78    79.63     0  00:14      0.0191      0.0561       0.055
  P62A                 JUNCTION      0.00     3.24     0  00:10           0    0.000583       0.237
  P61A                 JUNCTION      0.00     1.78     0  00:09           0    0.000281       0.541
  P90                  JUNCTION     49.18    49.18     0  00:14      0.0345      0.0345       0.017
  P91                  JUNCTION      0.00    49.17     0  00:14           0      0.0345      -0.012
  P92                  JUNCTION     52.05    52.05     0  00:14      0.0363      0.0363       0.007
  P93                  JUNCTION      0.00   101.04     0  00:14           0      0.0708       0.037
  P94                  JUNCTION     34.62    34.62     0  00:14      0.0242      0.0242       0.009
  P95                  JUNCTION      0.00   134.76     0  00:14           0       0.095       0.062
  P96                  JUNCTION     46.91    46.91     0  00:14      0.0323      0.0323       0.005
  P97                  JUNCTION      0.00   180.90     0  00:14           0       0.127       0.022
  E1                   OUTFALL       0.00  1857.41     0  00:14           0        1.44       0.000
  E32                  OUTFALL       0.00  1170.60     0  00:14           0       0.905       0.000
  E33                  OUTFALL       0.00   180.63     0  00:14           0       0.127       0.000
  
  
  **********************
  Node Surcharge Summary
  **********************
  
  Surcharging occurs when water rises above the top of the highest conduit.
  ---------------------------------------------------------------------
                                               Max. Height   Min. Depth
                                   Hours       Above Crown    Below Rim
  Node                 Type      Surcharged         Meters       Meters
  ---------------------------------------------------------------------
  P1                   JUNCTION        0.10          0.604        0.000
  P2                   JUNCTION        0.12          0.609        0.000
  P3                   JUNCTION        0.14          0.833        0.000
  P4                   JUNCTION        0.15          1.001        0.000
  P5                   JUNCTION        0.17          1.053        0.000
  P6                   JUNCTION        0.18          1.222        0.000
  P7                   JUNCTION        0.19          1.159        0.000
  P8                   JUNCTION        0.16          0.626        0.000
  P9                   JUNCTION        0.20          0.795        0.000
  P20                  JUNCTION        0.06          0.567        0.033
  P24                  JUNCTION        0.08          0.352        0.453
  P31                  JUNCTION        0.63          0.181        1.219
  P41                  JUNCTION        0.07          0.675        0.000
  P42                  JUNCTION        0.09          0.852        0.000
  P43                  JUNCTION        0.07          0.627        0.000
  P44                  JUNCTION        0.07          0.757        0.000
  P45                  JUNCTION        0.07          0.663        0.000
  P46                  JUNCTION        0.09          0.830        0.000
  P47                  JUNCTION        0.07          0.607        0.000
  P48                  JUNCTION        0.10          0.759        0.000
  P49                  JUNCTION        0.08          0.702        0.258
  P50                  JUNCTION        0.12          0.771        0.189
  P22                  JUNCTION        0.02          0.276        0.199
  P65                  JUNCTION        0.01          0.002        0.768
  
  
  *********************
  Node Flooding Summary
  *********************
  
  Flooding refers to all water that overflows a node, whether it ponds or not.
  --------------------------------------------------------------------------
                                                             Total   Maximum
                                 Maximum   Time of Max       Flood    Ponded
                        Hours       Rate    Occurrence      Volume     Depth
  Node                 Flooded       LPS   days hr:min    10^6 ltr    Meters
  --------------------------------------------------------------------------
  P1                      0.01     14.74      0  00:12       0.000     0.004
  P2                      0.01     26.25      0  00:12       0.000     0.009
  P3                      0.07     72.30      0  00:11       0.001     0.253
  P4                      0.12     67.66      0  00:11       0.004     0.421
  P5                      0.12     44.34      0  00:10       0.001     0.453
  P6                      0.15     71.93      0  00:10       0.005     0.622
  P7                      0.15     42.27      0  00:10       0.003     0.559
  P8                      0.03     14.87      0  00:10       0.000     0.026
  P9                      0.11     39.69      0  00:10       0.002     0.195
  P41                     0.01     35.95      0  00:12       0.000     0.000
  P42                     0.07     55.34      0  00:12       0.002     0.177
  P43                     0.01     43.44      0  00:12       0.000     0.027
  P44                     0.07     57.90      0  00:12       0.002     0.157
  P45                     0.03     77.84      0  00:12       0.000     0.063
  P46                     0.07     92.58      0  00:12       0.002     0.230
  P47                     0.01     36.57      0  00:12       0.000     0.007
  P48                     0.06     30.55      0  00:12       0.001     0.159
  
  
  ***********************
  Outfall Loading Summary
  ***********************
  
  -----------------------------------------------------------
                         Flow       Avg       Max       Total
                         Freq      Flow      Flow      Volume
  Outfall Node           Pcnt       LPS       LPS    10^6 ltr
  -----------------------------------------------------------
  E1                    90.04    604.37   1857.41       1.437
  E32                   90.32    379.35   1170.60       0.905
  E33                   90.21     53.39    180.63       0.127
  -----------------------------------------------------------
  System                90.19   1037.11   3205.65       2.469
  
  
  
  ********************
  Link Flow Summary
  ********************
  
  -----------------------------------------------------------------------------
                                 Maximum  Time of Max   Maximum    Max/    Max/
                                  |Flow|   Occurrence   |Veloc|    Full    Full
  Link                 Type          LPS  days hr:min     m/sec    Flow   Depth
  -----------------------------------------------------------------------------
  G1                   CONDUIT     76.90     0  00:12      1.11    0.24    1.00
  G2                   CONDUIT    119.94     0  00:12      1.18    0.57    1.00
  G3                   CONDUIT    101.24     0  00:11      0.96    0.34    1.00
  G4                   CONDUIT    165.42     0  00:11      1.47    0.79    1.00
  G5                   CONDUIT     94.29     0  00:10      0.93    0.29    1.00
  G6                   CONDUIT    244.94     0  00:14      1.95    1.14    1.00
  G7                   CONDUIT    283.60     0  00:15      2.26    1.37    1.00
  G8                   CONDUIT     69.96     0  00:19      1.11    0.21    1.00
  G38                  CONDUIT     24.36     0  00:14      0.94    0.08    0.35
  G39                  CONDUIT     71.01     0  00:13      0.84    0.23    0.76
  G40                  CONDUIT    131.79     0  00:16      1.32    0.22    1.00
  G41                  CONDUIT    205.28     0  00:16      1.63    1.60    1.00
  G42                  CONDUIT     79.20     0  00:12      0.89    0.25    1.00
  G43                  CONDUIT    253.39     0  00:16      2.04    1.07    1.00
  G44                  CONDUIT     88.57     0  00:12      1.04    0.27    1.00
  G45                  CONDUIT    326.51     0  00:15      2.63    1.11    1.00
  G46                  CONDUIT     74.36     0  00:12      0.96    0.23    1.00
  G47                  CONDUIT    419.37     0  00:14      3.38    1.06    1.00
  G48                  CONDUIT     31.05     0  00:11      0.75    0.10    1.00
  G49                  CONDUIT    462.85     0  00:14      4.03    1.15    0.87
  G50                  CONDUIT     37.24     0  00:14      1.10    0.11    0.49
  G51                  CONDUIT    536.37     0  00:14      5.45    0.89    0.73
  G52                  CONDUIT     78.75     0  00:14      1.32    0.24    0.54
  G53                  CONDUIT    664.22     0  00:14      3.89    0.47    0.58
  G54                  CONDUIT    689.58     0  00:14      3.68    0.81    0.63
  G56                  CONDUIT    689.16     0  00:14      3.88    0.63    0.62
  G16                  CONDUIT     60.61     0  00:14      1.15    0.19    0.52
  G17                  CONDUIT    119.07     0  00:15      1.28    0.57    0.88
  G18                  CONDUIT     70.51     0  00:12      1.25    0.13    0.78
  G19                  CONDUIT    216.08     0  00:12      1.72    1.02    1.00
  G20                  CONDUIT     40.36     0  00:12      1.46    0.12    0.85
  G21                  CONDUIT     42.81     0  00:15      0.53    0.13    1.00
  G22                  CONDUIT     36.45     0  00:12      0.87    0.07    0.89
  G23                  CONDUIT    276.59     0  00:14      2.24    1.32    0.96
  G24                  CONDUIT     61.56     0  00:13      0.77    0.20    0.69
  G25                  CONDUIT    354.69     0  00:14      2.10    0.58    0.58
  G26                  CONDUIT     36.72     0  00:13      0.66    0.23    0.86
  G27                  CONDUIT    419.46     0  00:14      2.45    0.68    0.58
  G28                  CONDUIT     50.17     0  00:13      0.93    0.15    0.60
  G9                   CONDUIT    359.97     0  00:14      2.86    1.73    1.00
  G10                  CONDUIT     42.65     0  00:13      0.80    0.13    0.74
  G11                  CONDUIT    426.89     0  00:14      2.06    0.69    0.70
  G12                  CONDUIT     52.14     0  00:13      0.85    0.16    0.86
  G13                  CONDUIT    517.61     0  00:14      2.09    0.81    0.82
  G14                  CONDUIT    517.36     0  00:14      2.82    1.62    0.62
  G29                  CONDUIT    517.26     0  00:14      3.18    0.60    0.56
  G15                  CONDUIT    517.27     0  00:14      3.32    0.30    0.55
  G30                  CONDUIT     25.05     0  00:14      0.34    0.05    0.57
  G31                  CONDUIT   1056.51     0  00:14      4.52    0.55    0.48
  G33                  CONDUIT   1100.99     0  00:14      6.13    0.34    0.39
  G34                  CONDUIT     35.67     0  00:14      1.25    0.11    0.54
  G35                  CONDUIT   1124.98     0  00:14      6.51    0.28    0.38
  G36                  CONDUIT     52.22     0  00:14      1.48    0.16    0.53
  G37                  CONDUIT   1172.39     0  00:14      6.25    0.32    0.41
  G32                  CONDUIT     55.45     0  00:14      1.51    0.17    0.65
  G57                  CONDUIT   1857.41     0  00:14      4.74    0.88    0.73
  G58                  CONDUIT     52.84     0  00:14      1.54    0.10    0.32
  G59                  CONDUIT     79.03     0  00:14      1.55    0.38    0.43
  G61                  CONDUIT    112.10     0  00:14      1.42    0.53    0.61
  G63                  CONDUIT    163.88     0  00:14      1.74    0.80    0.70
  G64                  CONDUIT    186.72     0  00:14      1.72    0.87    0.81
  G66                  CONDUIT    203.89     0  00:19      1.80    1.52    0.95
  G65                  CONDUIT    422.28     0  00:14      2.53    0.67    0.57
  G67                  CONDUIT    446.25     0  00:14      3.24    0.56    0.49
  G68                  CONDUIT     60.74     0  00:14      1.18    0.17    0.47
  G69                  CONDUIT    561.33     0  00:14      4.71    0.40    0.44
  G70                  CONDUIT     50.15     0  00:14      1.37    0.14    0.45
  G71                  CONDUIT    642.88     0  00:14      5.11    0.40    0.46
  G72                  CONDUIT     65.69     0  00:14      1.24    0.19    0.50
  G73                  CONDUIT    753.56     0  00:14      5.11    0.46    0.52
  G74                  CONDUIT    780.92     0  00:14      4.00    0.56    0.65
  G75                  CONDUIT    782.71     0  00:14      2.65    0.59    0.57
  G76                  CONDUIT    784.59     0  00:14      2.46    0.59    0.61
  G78                  CONDUIT    811.48     0  00:14      2.25    0.62    0.69
  G77                  CONDUIT     35.36     0  00:23      1.07    0.03    0.71
  G60                  CONDUIT      1.78     0  00:09      0.21    0.02    0.50
  G62                  CONDUIT      3.24     0  00:10      0.20    0.03    0.67
  G79                  CONDUIT     54.97     0  00:14      1.39    0.49    0.36
  G80                  CONDUIT     98.80     0  00:14      2.80    0.18    0.32
  G81                  CONDUIT     40.03     0  00:14      0.97    0.36    0.37
  G82                  CONDUIT    187.86     0  00:14      3.23    0.28    0.47
  G83                  CONDUIT    225.02     0  00:14      3.70    0.64    0.49
  G84                  CONDUIT    266.42     0  00:14      2.85    0.33    0.70
  G85                  CONDUIT      0.33     0  00:09      0.06    0.00    0.12
  G86                  CONDUIT     28.18     0  00:14      1.55    0.05    0.20
  G87                  CONDUIT     85.17     0  00:14      1.95    0.14    0.38
  G88                  CONDUIT    113.39     0  00:14      1.81    0.50    0.50
  G89                  CONDUIT    113.39     0  00:14      1.64    0.18    0.33
  G90                  CONDUIT     49.17     0  00:14      2.00    0.14    0.25
  G91                  CONDUIT     49.03     0  00:14      1.19    0.13    0.36
  G92                  CONDUIT     52.03     0  00:14      1.28    0.15    0.37
  G94                  CONDUIT     34.60     0  00:14      1.10    0.10    0.37
  G93                  CONDUIT    100.44     0  00:14      1.58    0.47    0.50
  G95                  CONDUIT    134.42     0  00:14      2.02    0.54    0.52
  G96                  CONDUIT     46.89     0  00:14      1.28    0.13    0.39
  G152                 CONDUIT   1170.60     0  00:14      2.97    0.89    0.73
  G153                 CONDUIT    180.63     0  00:14      2.71    0.54    0.52
  
  
  ***************************
  Flow Classification Summary
  ***************************
  
  -------------------------------------------------------------------------------------
                      Adjusted    ---------- Fraction of Time in Flow Class ---------- 
                       /Actual         Up    Down  Sub   Sup   Up    Down  Norm  Inlet 
  Conduit               Length    Dry  Dry   Dry   Crit  Crit  Crit  Crit  Ltd   Ctrl  
  -------------------------------------------------------------------------------------
  G1                      1.00   0.09  0.00  0.00  0.65  0.26  0.00  0.00  0.65  0.00
  G2                      1.00   0.09  0.00  0.00  0.84  0.07  0.00  0.00  0.63  0.00
  G3                      1.00   0.09  0.00  0.00  0.87  0.04  0.00  0.00  0.65  0.00
  G4                      1.00   0.09  0.00  0.00  0.62  0.29  0.00  0.00  0.57  0.00
  G5                      1.00   0.09  0.00  0.00  0.87  0.04  0.00  0.00  0.62  0.00
  G6                      1.00   0.09  0.00  0.00  0.31  0.60  0.00  0.00  0.45  0.00
  G7                      1.00   0.09  0.00  0.00  0.36  0.55  0.00  0.00  0.50  0.00
  G8                      1.00   0.09  0.00  0.00  0.86  0.05  0.00  0.00  0.54  0.00
  G38                     1.00   0.09  0.00  0.00  0.51  0.40  0.00  0.00  0.89  0.00
  G39                     1.00   0.09  0.00  0.00  0.87  0.04  0.00  0.00  0.82  0.00
  G40                     1.00   0.09  0.00  0.00  0.87  0.04  0.00  0.00  0.79  0.00
  G41                     1.00   0.09  0.00  0.00  0.86  0.04  0.00  0.00  0.00  0.00
  G42                     1.00   0.09  0.00  0.00  0.87  0.04  0.00  0.00  0.72  0.00
  G43                     1.00   0.09  0.00  0.00  0.16  0.75  0.00  0.00  0.63  0.00
  G44                     1.00   0.09  0.00  0.00  0.86  0.05  0.00  0.00  0.71  0.00
  G45                     1.00   0.09  0.00  0.00  0.14  0.77  0.00  0.00  0.53  0.00
  G46                     1.00   0.09  0.00  0.00  0.85  0.05  0.00  0.00  0.72  0.00
  G47                     1.00   0.09  0.00  0.00  0.14  0.76  0.00  0.00  0.59  0.00
  G48                     1.00   0.09  0.00  0.00  0.88  0.03  0.00  0.00  0.64  0.00
  G49                     1.00   0.09  0.00  0.00  0.00  0.91  0.00  0.00  0.01  0.00
  G50                     1.00   0.09  0.00  0.00  0.86  0.05  0.00  0.00  0.83  0.00
  G51                     1.00   0.09  0.00  0.00  0.00  0.91  0.00  0.00  0.68  0.00
  G52                     1.00   0.09  0.00  0.00  0.80  0.11  0.00  0.00  0.73  0.00
  G53                     1.00   0.09  0.00  0.00  0.00  0.91  0.00  0.00  0.88  0.00
  G54                     1.00   0.09  0.00  0.00  0.00  0.91  0.00  0.00  0.37  0.00
  G56                     1.00   0.09  0.00  0.00  0.00  0.21  0.00  0.70  0.18  0.00
  G16                     1.00   0.09  0.00  0.00  0.50  0.41  0.00  0.00  0.69  0.00
  G17                     1.00   0.09  0.00  0.00  0.76  0.15  0.00  0.00  0.76  0.00
  G18                     1.00   0.09  0.00  0.00  0.87  0.04  0.00  0.00  0.84  0.00
  G19                     1.00   0.09  0.00  0.00  0.55  0.35  0.00  0.00  0.45  0.00
  G20                     1.00   0.09  0.00  0.00  0.11  0.80  0.00  0.00  0.35  0.00
  G21                     1.00   0.09  0.00  0.00  0.89  0.02  0.00  0.00  0.76  0.00
  G22                     1.00   0.09  0.00  0.00  0.87  0.03  0.00  0.00  0.80  0.00
  G23                     1.00   0.09  0.00  0.00  0.00  0.00  0.00  0.91  0.00  0.00
  G24                     1.00   0.09  0.00  0.00  0.87  0.04  0.00  0.00  0.69  0.00
  G25                     1.00   0.09  0.00  0.00  0.01  0.90  0.00  0.00  0.61  0.00
  G26                     1.00   0.09  0.00  0.00  0.89  0.02  0.00  0.00  0.28  0.00
  G27                     1.00   0.09  0.00  0.00  0.02  0.89  0.00  0.00  0.51  0.00
  G28                     1.00   0.09  0.00  0.00  0.86  0.05  0.00  0.00  0.80  0.00
  G9                      1.00   0.09  0.00  0.00  0.00  0.00  0.00  0.91  0.00  0.00
  G10                     1.00   0.09  0.00  0.00  0.87  0.04  0.00  0.00  0.59  0.00
  G11                     1.00   0.09  0.00  0.00  0.01  0.90  0.00  0.00  0.51  0.00
  G12                     1.00   0.09  0.00  0.00  0.87  0.04  0.00  0.00  0.54  0.00
  G13                     1.00   0.09  0.00  0.00  0.51  0.39  0.00  0.00  0.39  0.00
  G14                     1.00   0.09  0.00  0.00  0.02  0.88  0.00  0.00  0.00  0.00
  G29                     1.00   0.09  0.00  0.00  0.00  0.00  0.00  0.91  0.00  0.00
  G15                     1.00   0.09  0.01  0.00  0.04  0.86  0.00  0.00  0.90  0.00
  G30                     1.00   0.09  0.05  0.00  0.00  0.00  0.86  0.00  0.00  0.00
  G31                     1.00   0.09  0.00  0.00  0.02  0.88  0.00  0.00  0.02  0.00
  G33                     1.00   0.09  0.00  0.00  0.00  0.91  0.00  0.00  0.00  0.00
  G34                     1.00   0.09  0.00  0.00  0.84  0.06  0.00  0.00  0.68  0.00
  G35                     1.00   0.09  0.00  0.00  0.00  0.90  0.00  0.00  0.80  0.00
  G36                     1.00   0.09  0.00  0.00  0.83  0.08  0.00  0.00  0.83  0.00
  G37                     1.00   0.09  0.00  0.00  0.00  0.10  0.00  0.80  0.08  0.00
  G32                     1.00   0.09  0.00  0.00  0.84  0.06  0.00  0.00  0.65  0.00
  G57                     1.00   0.10  0.00  0.00  0.00  0.90  0.00  0.00  0.58  0.00
  G58                     1.00   0.09  0.00  0.00  0.35  0.56  0.00  0.00  0.89  0.00
  G59                     1.00   0.09  0.00  0.00  0.00  0.00  0.00  0.91  0.00  0.00
  G61                     1.00   0.09  0.00  0.00  0.33  0.57  0.00  0.00  0.72  0.00
  G63                     1.00   0.09  0.00  0.00  0.05  0.86  0.00  0.00  0.59  0.00
  G64                     1.00   0.09  0.00  0.00  0.77  0.14  0.00  0.00  0.75  0.00
  G66                     1.00   0.09  0.00  0.00  0.34  0.56  0.00  0.00  0.06  0.00
  G65                     1.00   0.09  0.00  0.00  0.01  0.90  0.00  0.00  0.71  0.00
  G67                     1.00   0.09  0.00  0.00  0.02  0.89  0.00  0.00  0.02  0.00
  G68                     1.00   0.09  0.00  0.00  0.75  0.16  0.00  0.00  0.79  0.00
  G69                     1.00   0.09  0.00  0.00  0.00  0.91  0.00  0.00  0.19  0.00
  G70                     1.00   0.09  0.00  0.00  0.79  0.12  0.00  0.00  0.83  0.00
  G71                     1.00   0.09  0.00  0.00  0.00  0.91  0.00  0.00  0.89  0.00
  G72                     1.00   0.09  0.00  0.00  0.78  0.13  0.00  0.00  0.82  0.00
  G73                     1.00   0.09  0.00  0.00  0.00  0.91  0.00  0.00  0.82  0.00
  G74                     1.00   0.09  0.00  0.00  0.00  0.91  0.00  0.00  0.62  0.00
  G75                     1.00   0.09  0.00  0.00  0.01  0.90  0.00  0.00  0.63  0.00
  G76                     1.00   0.09  0.00  0.00  0.02  0.88  0.00  0.00  0.57  0.00
  G78                     1.00   0.09  0.00  0.00  0.19  0.72  0.00  0.00  0.46  0.00
  G77                     1.00   0.09  0.00  0.00  0.87  0.04  0.00  0.00  0.49  0.00
  G60                     1.00   0.09  0.01  0.00  0.90  0.00  0.00  0.00  0.12  0.00
  G62                     1.00   0.09  0.02  0.00  0.89  0.00  0.00  0.00  0.15  0.00
  G79                     1.00   0.09  0.00  0.00  0.30  0.61  0.00  0.00  0.03  0.00
  G80                     1.00   0.09  0.00  0.00  0.00  0.91  0.00  0.00  0.90  0.00
  G81                     1.00   0.09  0.00  0.00  0.87  0.04  0.00  0.00  0.44  0.00
  G82                     1.00   0.09  0.00  0.00  0.00  0.91  0.00  0.00  0.90  0.00
  G83                     1.00   0.09  0.00  0.00  0.00  0.91  0.00  0.00  0.23  0.00
  G84                     1.00   0.09  0.00  0.00  0.54  0.36  0.00  0.00  0.89  0.00
  G85                     1.00   0.09  0.04  0.00  0.87  0.00  0.00  0.00  0.44  0.00
  G86                     1.00   0.09  0.00  0.00  0.00  0.90  0.00  0.00  0.91  0.00
  G87                     1.00   0.09  0.00  0.00  0.00  0.91  0.00  0.00  0.89  0.00
  G88                     1.00   0.09  0.00  0.00  0.00  0.00  0.00  0.91  0.00  0.00
  G89                     1.00   0.09  0.00  0.00  0.00  0.07  0.00  0.83  0.02  0.00
  G90                     1.00   0.09  0.00  0.00  0.00  0.91  0.00  0.00  0.54  0.00
  G91                     1.00   0.09  0.00  0.00  0.36  0.55  0.00  0.00  0.89  0.00
  G92                     1.00   0.09  0.00  0.00  0.44  0.47  0.00  0.00  0.76  0.00
  G94                     1.00   0.09  0.00  0.00  0.86  0.05  0.00  0.00  0.88  0.00
  G93                     1.00   0.09  0.00  0.00  0.15  0.75  0.00  0.00  0.70  0.00
  G95                     1.00   0.09  0.00  0.00  0.02  0.88  0.00  0.00  0.51  0.00
  G96                     1.00   0.09  0.00  0.00  0.75  0.16  0.00  0.00  0.76  0.00
  G152                    1.00   0.09  0.00  0.00  0.00  0.90  0.00  0.00  0.51  0.00
  G153                    1.00   0.09  0.00  0.00  0.00  0.90  0.00  0.00  0.64  0.00
  
  
  *************************
  Conduit Surcharge Summary
  *************************
  
  ----------------------------------------------------------------------------
                                                           Hours        Hours 
                         --------- Hours Full --------   Above Full   Capacity
  Conduit                Both Ends  Upstream  Dnstream   Normal Flow   Limited
  ----------------------------------------------------------------------------
  G1                          0.10      0.10      0.12      0.01         0.01
  G2                          0.12      0.12      0.15      0.01         0.01
  G3                          0.14      0.14      0.15      0.01         0.01
  G4                          0.15      0.15      0.18      0.01         0.01
  G5                          0.17      0.17      0.18      0.01         0.01
  G6                          0.18      0.18      0.19      0.12         0.13
  G7                          0.19      0.19      0.20      0.18         0.17
  G8                          0.16      0.16      0.20      0.01         0.01
  G39                         0.01      0.01      0.09      0.01         0.01
  G40                         0.07      0.07      0.09      0.01         0.01
  G41                         0.07      0.09      0.07      0.13         0.07
  G42                         0.07      0.07      0.07      0.01         0.01
  G43                         0.07      0.07      0.09      0.01         0.01
  G44                         0.07      0.07      0.09      0.01         0.01
  G45                         0.09      0.09      0.10      0.08         0.07
  G46                         0.07      0.07      0.10      0.01         0.01
  G47                         0.10      0.10      0.12      0.07         0.07
  G48                         0.08      0.08      0.12      0.01         0.01
  G49                         0.01      0.12      0.01      0.12         0.01
  G17                         0.01      0.01      0.06      0.01         0.01
  G18                         0.01      0.01      0.06      0.01         0.01
  G19                         0.06      0.06      0.08      0.01         0.01
  G20                         0.01      0.01      0.02      0.01         0.01
  G21                         0.02      0.02      0.08      0.01         0.01
  G22                         0.01      0.01      0.08      0.01         0.01
  G23                         0.01      0.08      0.01      0.11         0.01
  G9                          0.06      0.20      0.06      0.21         0.06
  G12                         0.01      0.01      0.14      0.01         0.01
  G14                         0.01      0.01      0.01      0.18         0.01
  G30                         0.01      0.01      0.63      0.01         0.01
  G66                         0.01      0.01      0.01      0.22         0.01
  G84                         0.01      0.01      0.17      0.01         0.01
  

  Analysis begun on:  Thu Aug 21 12:32:29 2025
  Analysis ended on:  Thu Aug 21 12:32:33 2025
  Total elapsed time: 00:00:04