
  EPA STORM WATER MANAGEMENT MODEL - VERSION 5.2 (Build 5.2.4)
  PYSWMM TOOLKIT API - VERSION v1.0 (2023-11-27)
  ------------------------------------------------------------

  test 
  
  ****************
  Analysis Options
  ****************
  Flow Units ............... LPS
  Process Models:
    Rainfall/Runoff ........ YES
    RDII ................... NO
    Snowmelt ............... NO
    Groundwater ............ NO
    Flow Routing ........... YES
    Ponding Allowed ........ YES
    Water Quality .......... NO
  Infiltration Method ...... CURVE_NUMBER
  Flow Routing Method ...... DYNWAVE
  Surcharge Method ......... EXTRAN
  Starting Date ............ 11/13/2024 00:00:00
  Ending Date .............. 11/13/2024 01:35:00
  Antecedent Dry Days ...... 7.0
  Report Time Step ......... 00:05:00
  Wet Time Step ............ 00:01:00
  Dry Time Step ............ 01:00:00
  Routing Time Step ........ 0.60 sec
  Variable Time Step ....... YES
  Maximum Trials ........... 8
  Number of Threads ........ 1
  Head Tolerance ........... 0.001500 m
  
  
  **************************        Volume         Depth
  Runoff Quantity Continuity     hectare-m            mm
  **************************     ---------       -------
  Total Precipitation ......         0.451        48.700
  Evaporation Loss .........         0.000         0.000
  Infiltration Loss ........         0.050         5.354
  Surface Runoff ...........         0.395        42.656
  Final Storage ............         0.004         0.469
  Continuity Error (%) .....         0.454
  
  
  **************************        Volume        Volume
  Flow Routing Continuity        hectare-m      10^6 ltr
  **************************     ---------     ---------
  Dry Weather Inflow .......         0.000         0.000
  Wet Weather Inflow .......         0.395         3.953
  Groundwater Inflow .......         0.000         0.000
  RDII Inflow ..............         0.000         0.000
  External Inflow ..........         0.000         0.000
  External Outflow .........         0.395         3.949
  Flooding Loss ............         0.000         0.000
  Evaporation Loss .........         0.000         0.000
  Exfiltration Loss ........         0.000         0.000
  Initial Stored Volume ....         0.000         0.000
  Final Stored Volume ......         0.000         0.004
  Continuity Error (%) .....        -0.005
  
  
  *************************
  Highest Continuity Errors
  *************************
  Node P31 (1.69%)
  
  
  ***************************
  Time-Step Critical Elements
  ***************************
  None
  
  
  ********************************
  Highest Flow Instability Indexes
  ********************************
  Link G66 (14)
  Link G65 (5)
  Link G79 (5)
  Link G30 (5)
  Link G40 (5)
  
  
  *********************************
  Most Frequent Nonconverging Nodes
  *********************************
  Node E1 (2.90%)
  Node E32 (2.90%)
  Node E33 (2.90%)
  Node P50 (0.51%)
  Node P49 (0.46%)
  
  
  *************************
  Routing Time Step Summary
  *************************
  Minimum Time Step           :     0.40 sec
  Average Time Step           :     0.50 sec
  Maximum Time Step           :     0.60 sec
  % of Time in Steady State   :     0.00
  Average Iterations per Step :     2.30
  % of Steps Not Converging   :     2.90
  Time Step Frequencies       :
      0.600 -  0.579 sec      :    98.85 %
      0.579 -  0.558 sec      :     0.09 %
      0.558 -  0.538 sec      :     0.03 %
      0.538 -  0.519 sec      :     0.05 %
      0.519 -  0.500 sec      :     0.98 %
  
  
  ***************************
  Subcatchment Runoff Summary
  ***************************
  
  ------------------------------------------------------------------------------------------------------------------------------
                            Total      Total      Total      Total     Imperv       Perv      Total       Total     Peak  Runoff
                           Precip      Runon       Evap      Infil     Runoff     Runoff     Runoff      Runoff   Runoff   Coeff
  Subcatchment                 mm         mm         mm         mm         mm         mm         mm    10^6 ltr      LPS
  ------------------------------------------------------------------------------------------------------------------------------
  B140                      48.70       0.00       0.00       4.17      40.65       3.71      43.99        0.03    28.18   0.903
  B139                      48.70       0.00       0.00       4.60      39.82       4.08      43.50        0.03    27.56   0.893
  B141                      48.70       0.00       0.00       5.23      38.57       4.70      42.80        0.01    13.17   0.879
  B142                      48.70       0.00       0.00       5.23      38.57       4.70      42.80        0.01    13.17   0.879
  B144                      48.70       0.00       0.00       5.23      38.57       4.70      42.80        0.01    13.17   0.879
  B145                      48.70       0.00       0.00       5.23      38.57       4.70      42.80        0.01    13.17   0.879
  B146                      48.70       0.00       0.00       5.23      38.57       4.70      42.80        0.01    13.17   0.879
  B147                      48.70       0.00       0.00       5.23      38.57       4.70      42.80        0.01    13.17   0.879
  B148                      48.70       0.00       0.00       5.23      38.57       4.70      42.80        0.01    13.17   0.879
  B149                      48.70       0.00       0.00       4.27      40.45       3.79      43.86        0.03    26.20   0.901
  B108                      48.70       0.00       0.00       5.25      38.54       4.63      42.71        0.01    12.97   0.877
  B42                       48.70       0.00       0.00       5.25      38.53       4.61      42.69        0.01    12.92   0.877
  B40                       48.70       0.00       0.00       5.25      38.53       4.61      42.69        0.01    12.92   0.877
  B38                       48.70       0.00       0.00       5.25      38.53       4.61      42.69        0.01    12.92   0.877
  B36                       48.70       0.00       0.00       5.25      38.53       4.61      42.69        0.01    12.92   0.877
  B34                       48.70       0.00       0.00       5.25      38.53       4.61      42.69        0.01    12.92   0.877
  B32                       48.70       0.00       0.00       5.25      38.53       4.61      42.69        0.01    12.92   0.877
  B30                       48.70       0.00       0.00       5.25      38.53       4.61      42.69        0.01    12.92   0.877
  B9                        48.70       0.00       0.00       5.25      38.53       4.61      42.69        0.01    12.92   0.877
  B7                        48.70       0.00       0.00       5.25      38.53       4.61      43.15        0.01    13.07   0.886
  B5                        48.70       0.00       0.00       5.25      38.53       4.61      42.69        0.01    12.92   0.877
  B3                        48.70       0.00       0.00       5.25      38.53       4.61      42.69        0.01    12.92   0.877
  B1                        48.70       0.00       0.00       5.25      38.53       4.61      43.15        0.01    13.07   0.886
  B23                       48.70       0.00       0.00       5.25      38.53       4.61      43.15        0.01    13.07   0.886
  B21                       48.70       0.00       0.00       5.25      38.53       4.61      42.69        0.01    12.92   0.877
  B19                       48.70       0.00       0.00       5.25      38.53       4.61      42.69        0.01    12.92   0.877
  B17                       48.70       0.00       0.00       5.25      38.53       4.61      42.69        0.01    12.92   0.877
  B15                       48.70       0.00       0.00       5.25      38.53       4.61      42.69        0.01    12.92   0.877
  B13                       48.70       0.00       0.00       5.25      38.53       4.61      42.69        0.01    12.92   0.877
  B11                       48.70       0.00       0.00       5.25      38.53       4.61      42.69        0.01    12.92   0.877
  B129                      48.70       0.00       0.00       5.23      38.57       4.70      42.80        0.01    13.17   0.879
  B127                      48.70       0.00       0.00       5.23      38.57       4.70      42.80        0.01    13.17   0.879
  B125                      48.70       0.00       0.00       5.23      38.57       4.70      42.80        0.01    13.17   0.879
  B123                      48.70       0.00       0.00       5.25      38.57       4.67      42.77        0.01    13.11   0.878
  B121                      48.70       0.00       0.00       5.25      38.57       4.67      42.77        0.01    13.11   0.878
  B120                      48.70       0.00       0.00       5.25      38.57       4.67      42.77        0.01    13.11   0.878
  B119                      48.70       0.00       0.00       5.25      38.57       4.67      42.77        0.01    13.11   0.878
  B113                      48.70       0.00       0.00       5.25      38.54       4.63      42.71        0.01    12.97   0.877
  B111                      48.70       0.00       0.00       5.25      38.54       4.63      42.71        0.01    12.97   0.877
  B109                      48.70       0.00       0.00       5.25      38.54       4.63      42.71        0.01    12.97   0.877
  B107                      48.70       0.00       0.00       5.25      38.54       4.63      42.71        0.01    12.97   0.877
  B105                      48.70       0.00       0.00       5.25      38.54       4.63      42.71        0.01    12.97   0.877
  B103                      48.70       0.00       0.00       5.25      38.54       4.63      42.71        0.01    12.97   0.877
  B101                      48.70       0.00       0.00       5.25      38.54       4.63      42.71        0.01    12.97   0.877
  BB118                     48.70       0.00       0.00       4.27      40.44       3.78      43.84        0.03    26.14   0.900
  B99                       48.70       0.00       0.00       4.27      40.38       3.72      43.73        0.03    25.56   0.898
  B28                       48.70       0.00       0.00       4.27      40.36       3.71      43.70        0.03    25.39   0.897
  B115                      48.70       0.00       0.00       5.25      38.54       4.63      42.71        0.01    12.97   0.877
  B22                       48.70       0.00       0.00       5.25      38.53       4.61      42.69        0.01    12.92   0.877
  B20                       48.70       0.00       0.00       5.25      38.53       4.61      42.69        0.01    12.92   0.877
  B18                       48.70       0.00       0.00       5.25      38.53       4.61      42.69        0.01    12.92   0.877
  B16                       48.70       0.00       0.00       5.25      38.53       4.61      42.69        0.01    12.92   0.877
  B14                       48.70       0.00       0.00       5.25      38.53       4.61      42.69        0.01    12.92   0.877
  B12                       48.70       0.00       0.00       5.25      38.53       4.61      42.69        0.01    12.92   0.877
  B10                       48.70       0.00       0.00       5.25      38.53       4.61      42.69        0.01    12.92   0.877
  B8                        48.70       0.00       0.00       5.25      38.53       4.61      43.15        0.01    13.07   0.886
  B6                        48.70       0.00       0.00       5.25      38.53       4.61      42.69        0.01    12.92   0.877
  B4                        48.70       0.00       0.00       5.25      38.53       4.61      42.69        0.01    12.92   0.877
  B2                        48.70       0.00       0.00       5.25      38.53       4.61      42.69        0.01    12.92   0.877
  B29                       48.70       0.00       0.00       5.25      38.53       4.61      42.69        0.01    12.92   0.877
  B31                       48.70       0.00       0.00       5.25      38.53       4.61      42.69        0.01    12.92   0.877
  B33                       48.70       0.00       0.00       5.25      38.53       4.61      42.69        0.01    12.92   0.877
  B35.                      48.70       0.00       0.00       5.25      38.53       4.61      42.69        0.01    12.92   0.877
  B37                       48.70       0.00       0.00       5.25      38.53       4.61      42.69        0.01    12.92   0.877
  B39                       48.70       0.00       0.00       5.25      38.53       4.61      43.15        0.01    13.07   0.886
  B41                       48.70       0.00       0.00       5.25      38.53       4.61      42.69        0.01    12.92   0.877
  B43                       48.70       0.00       0.00       5.25      38.53       4.61      42.69        0.01    12.92   0.877
  B27                       48.70       0.00       0.00       4.27      40.36       3.71      43.70        0.03    25.39   0.897
  B25                       48.70       0.00       0.00       4.27      40.36       3.71      43.70        0.03    25.39   0.897
  B24                       48.70       0.00       0.00       4.27      40.36       3.71      44.07        0.03    25.60   0.905
  B67                       48.70       0.00       0.00       4.27      40.36       3.71      43.70        0.03    25.39   0.897
  B68                       48.70       0.00       0.00       4.27      40.36       3.71      43.70        0.03    25.39   0.897
  B98                       48.70       0.00       0.00       4.27      40.38       3.72      43.73        0.03    25.56   0.898
  B97                       48.70       0.00       0.00       4.27      40.32       3.67      43.63        0.03    24.95   0.896
  B46                       48.70       0.00       0.00       4.52      39.93       3.96      43.49        0.02    17.44   0.893
  B45                       48.70       0.00       0.00       4.35      40.20       3.75      43.58        0.03    29.31   0.895
  B47                       48.70       0.00       0.00       4.50      39.91       3.87      43.39        0.03    29.79   0.891
  B44                       48.70       0.00       0.00       5.25      38.52       4.58      42.64        0.02    17.04   0.876
  B122                      48.70       0.00       0.00       4.27      40.44       3.78      43.85        0.03    26.16   0.900
  B124                      48.70       0.00       0.00       5.25      38.57       4.67      42.77        0.01    13.11   0.878
  B126                      48.70       0.00       0.00       5.25      38.57       4.67      42.77        0.01    13.11   0.878
  B128                      48.70       0.00       0.00       5.25      38.57       4.67      42.77        0.01    13.11   0.878
  B130                      48.70       0.00       0.00       5.25      38.57       4.67      42.77        0.01    13.11   0.878
  B132                      48.70       0.00       0.00       5.23      38.57       4.70      42.80        0.01    13.17   0.879
  B135                      48.70       0.00       0.00       5.23      38.57       4.70      42.80        0.01    13.17   0.879
  B137                      48.70       0.00       0.00       5.23      38.57       4.70      42.80        0.01    13.17   0.879
  BBB118                    48.70       0.00       0.00       4.27      40.38       3.72      43.73        0.03    25.56   0.898
  B48                       48.70       0.00       0.00       4.27      40.36       3.71      43.70        0.03    25.39   0.897
  BB117                     48.70       0.00       0.00       4.27      40.38       3.72      43.73        0.03    25.56   0.898
  B83                       48.70       0.00       0.00       5.25      38.53       4.61      42.69        0.01    12.92   0.877
  B81                       48.70       0.00       0.00       5.25      38.53       4.61      42.69        0.01    12.92   0.877
  B79                       48.70       0.00       0.00       5.25      38.53       4.61      42.69        0.01    12.92   0.877
  B77                       48.70       0.00       0.00       5.25      38.53       4.61      42.69        0.01    12.92   0.877
  B75                       48.70       0.00       0.00       5.25      38.53       4.61      42.69        0.01    12.92   0.877
  B73                       48.70       0.00       0.00       5.25      38.53       4.61      42.69        0.01    12.92   0.877
  B71                       48.70       0.00       0.00       5.25      38.53       4.61      42.69        0.01    12.92   0.877
  B69                       48.70       0.00       0.00       5.25      38.53       4.61      42.69        0.01    12.92   0.877
  B70                       48.70       0.00       0.00       5.25      38.53       4.61      42.69        0.01    12.92   0.877
  B72                       48.70       0.00       0.00       5.25      38.53       4.61      42.69        0.01    12.92   0.877
  B74                       48.70       0.00       0.00       5.25      38.53       4.61      42.69        0.01    12.92   0.877
  B76                       48.70       0.00       0.00       5.25      38.53       4.61      42.69        0.01    12.92   0.877
  B78                       48.70       0.00       0.00       5.25      38.53       4.61      42.69        0.01    12.92   0.877
  B80                       48.70       0.00       0.00       5.25      38.53       4.61      42.69        0.01    12.92   0.877
  B82                       48.70       0.00       0.00       5.25      38.53       4.61      42.69        0.01    12.92   0.877
  B84                       48.70       0.00       0.00       5.25      38.53       4.61      42.69        0.01    12.92   0.877
  B85                       48.70       0.00       0.00       5.25      38.54       4.63      42.71        0.01    12.97   0.877
  B86                       48.70       0.00       0.00       5.25      38.54       4.63      42.71        0.01    12.97   0.877
  B88                       48.70       0.00       0.00       5.25      38.54       4.63      42.71        0.01    12.97   0.877
  B90                       48.70       0.00       0.00       5.25      38.54       4.63      42.71        0.01    12.97   0.877
  B92                       48.70       0.00       0.00       5.25      38.54       4.63      42.71        0.01    12.97   0.877
  B94                       48.70       0.00       0.00       5.25      38.54       4.63      42.71        0.01    12.97   0.877
  B96                       48.70       0.00       0.00       5.25      38.54       4.63      42.71        0.01    12.97   0.877
  B95                       48.70       0.00       0.00       5.25      38.54       4.63      42.71        0.01    12.97   0.877
  B93                       48.70       0.00       0.00       5.25      38.54       4.63      42.71        0.01    12.97   0.877
  B91                       48.70       0.00       0.00       5.25      38.54       4.63      42.71        0.01    12.97   0.877
  B89                       48.70       0.00       0.00       5.25      38.54       4.63      42.71        0.01    12.97   0.877
  B87                       48.70       0.00       0.00       5.25      38.54       4.63      42.71        0.01    12.97   0.877
  B116                      48.70       0.00       0.00       5.25      38.54       4.63      42.71        0.01    12.97   0.877
  B114                      48.70       0.00       0.00       5.25      38.54       4.63      42.71        0.01    12.97   0.877
  B112                      48.70       0.00       0.00       5.25      38.54       4.63      42.71        0.01    12.97   0.877
  B110                      48.70       0.00       0.00       5.25      38.54       4.63      42.71        0.01    12.97   0.877
  B50                       48.70       0.00       0.00       5.25      38.53       4.61      42.69        0.01    12.92   0.877
  B52                       48.70       0.00       0.00       5.25      38.53       4.61      42.69        0.01    12.92   0.877
  B54                       48.70       0.00       0.00       5.25      38.53       4.61      42.69        0.01    12.92   0.877
  B56                       48.70       0.00       0.00       5.25      38.53       4.61      42.69        0.01    12.92   0.877
  B58                       48.70       0.00       0.00       5.25      38.53       4.61      42.69        0.01    12.92   0.877
  B60                       48.70       0.00       0.00       5.25      38.53       4.61      42.69        0.01    12.92   0.877
  B106                      48.70       0.00       0.00       5.25      38.54       4.63      42.71        0.01    12.97   0.877
  B104                      48.70       0.00       0.00       5.25      38.54       4.63      42.71        0.01    12.97   0.877
  B102                      48.70       0.00       0.00       5.25      38.54       4.63      42.71        0.01    12.97   0.877
  B100                      48.70       0.00       0.00       4.27      40.38       3.72      43.73        0.03    25.56   0.898
  B66                       48.70       0.00       0.00       4.27      40.36       3.71      43.70        0.03    25.39   0.897
  B62                       48.70       0.00       0.00       5.25      38.53       4.61      42.69        0.01    12.92   0.877
  B64                       48.70       0.00       0.00       5.25      38.53       4.61      42.69        0.01    12.92   0.877
  B65                       48.70       0.00       0.00       4.27      40.36       3.71      43.70        0.03    25.39   0.897
  B63                       48.70       0.00       0.00       5.25      38.53       4.61      42.69        0.01    12.92   0.877
  B61                       48.70       0.00       0.00       5.25      38.53       4.61      42.69        0.01    12.92   0.877
  B59                       48.70       0.00       0.00       5.25      38.53       4.61      42.69        0.01    12.92   0.877
  B57                       48.70       0.00       0.00       5.25      38.53       4.61      42.69        0.01    12.92   0.877
  B55                       48.70       0.00       0.00       5.25      38.53       4.61      42.69        0.01    12.92   0.877
  B53                       48.70       0.00       0.00       5.25      38.53       4.61      42.69        0.01    12.92   0.877
  B51                       48.70       0.00       0.00       5.25      38.53       4.61      42.69        0.01    12.92   0.877
  B49                       48.70       0.00       0.00       5.25      38.53       4.61      42.69        0.01    12.92   0.877
  B138                      48.70       0.00       0.00       3.97      41.04       3.53      44.22        0.03    29.67   0.908
  B188                      48.70       0.00       0.00       4.50      40.01       3.98      43.99        0.03    28.81   0.903
  B189                      48.70       0.00       0.00       5.24      38.57       4.69      43.26        0.01    13.33   0.888
  B190                      48.70       0.00       0.00       5.24      38.57       4.69      43.26        0.01    13.33   0.888
  B191                      48.70       0.00       0.00       5.24      38.57       4.69      43.26        0.01    13.33   0.888
  B192                      48.70       0.00       0.00       5.24      38.57       4.69      43.26        0.01    13.33   0.888
  B193                      48.70       0.00       0.00       5.24      38.57       4.69      43.26        0.01    13.33   0.888
  B194                      48.70       0.00       0.00       4.27      40.45       3.79      44.24        0.03    26.47   0.908
  B195                      48.70       0.00       0.00       4.27      40.37       3.71      44.07        0.03    25.62   0.905
  B196                      48.70       0.00       0.00       5.25      38.54       4.62      43.15        0.01    13.08   0.886
  B197                      48.70       0.00       0.00       5.25      38.54       4.62      43.15        0.01    13.08   0.886
  B198                      48.70       0.00       0.00       5.25      38.54       4.62      43.15        0.01    13.08   0.886
  B199                      48.70       0.00       0.00       5.25      38.54       4.62      43.15        0.01    13.08   0.886
  B204                      48.70       0.00       0.00       4.27      40.37       3.71      44.07        0.03    25.62   0.905
  B203                      48.70       0.00       0.00       5.25      38.54       4.62      43.15        0.01    13.08   0.886
  B202                      48.70       0.00       0.00       5.25      38.54       4.62      43.15        0.01    13.08   0.886
  B200                      48.70       0.00       0.00       5.25      38.54       4.62      43.15        0.01    13.08   0.886
  B201                      48.70       0.00       0.00       5.25      38.54       4.62      43.15        0.01    13.08   0.886
  B176                      48.70       0.00       0.00       3.95      41.08       3.50      44.23        0.03    29.03   0.908
  B177                      48.70       0.00       0.00       5.24      38.57       4.69      42.79        0.01    13.15   0.879
  B178                      48.70       0.00       0.00       5.24      38.57       4.69      43.26        0.01    13.33   0.888
  B179                      48.70       0.00       0.00       5.24      38.57       4.69      43.26        0.01    13.33   0.888
  B180                      48.70       0.00       0.00       5.24      38.57       4.69      43.26        0.01    13.33   0.888
  B181                      48.70       0.00       0.00       5.24      38.57       4.69      43.26        0.01    13.33   0.888
  B182                      48.70       0.00       0.00       5.24      38.57       4.69      43.26        0.01    13.33   0.888
  B183                      48.70       0.00       0.00       5.25      38.54       4.62      43.15        0.01    13.08   0.886
  B184                      48.70       0.00       0.00       5.25      38.54       4.62      43.15        0.01    13.08   0.886
  B185                      48.70       0.00       0.00       5.25      38.54       4.62      43.15        0.01    13.08   0.886
  B186                      48.70       0.00       0.00       5.25      38.54       4.62      43.15        0.01    13.08   0.886
  B187                      48.70       0.00       0.00       4.27      40.37       3.71      43.70        0.03    25.41   0.897
  B165                      48.70       0.00       0.00       4.27      40.42       3.76      43.81        0.03    25.98   0.900
  BB166                     48.70       0.00       0.00       5.25      38.56       4.66      43.22        0.01    13.26   0.888
  BB167                     48.70       0.00       0.00       5.25      38.56       4.66      43.22        0.01    13.26   0.888
  B168                      48.70       0.00       0.00       5.23      38.57       4.70      43.27        0.01    13.35   0.889
  B169                      48.70       0.00       0.00       5.23      38.57       4.70      42.80        0.01    13.17   0.879
  B170                      48.70       0.00       0.00       5.23      38.57       4.70      42.80        0.01    13.17   0.879
  B171                      48.70       0.00       0.00       5.23      38.57       4.70      42.80        0.01    13.17   0.879
  B172                      48.70       0.00       0.00       5.23      38.57       4.70      42.80        0.01    13.17   0.879
  B173                      48.70       0.00       0.00       5.23      38.58       4.71      42.81        0.01    13.18   0.879
  B174                      48.70       0.00       0.00       5.23      38.58       4.71      42.81        0.01    13.18   0.879
  B175                      48.70       0.00       0.00       4.30      40.42       3.83      43.86        0.03    27.00   0.901
  B150                      48.70       0.00       0.00       3.64      41.68       3.25      44.93        0.03    27.69   0.923
  B151                      48.70       0.00       0.00       4.90      39.21       4.41      43.62        0.02    15.69   0.896
  B152                      48.70       0.00       0.00       4.98      39.06       4.48      43.54        0.02    15.67   0.894
  B153                      48.70       0.00       0.00       5.05      38.92       4.54      43.45        0.01    14.49   0.892
  B154                      48.70       0.00       0.00       5.17      38.72       4.62      43.34        0.02    15.09   0.890
  B155                      48.70       0.00       0.00       5.17      38.72       4.62      43.34        0.02    15.72   0.890
  B157                      48.70       0.00       0.00       5.18      38.67       4.65      43.32        0.01    13.70   0.890
  B158                      48.70       0.00       0.00       5.23      38.57       4.70      42.80        0.01    13.71   0.879
  B159                      48.70       0.00       0.00       5.33      38.41       4.72      42.66        0.01    14.49   0.876
  B160                      48.70       0.00       0.00       5.23      38.57       4.70      42.80        0.01    13.17   0.879
  B161                      48.70       0.00       0.00       5.45      38.16       4.82      42.50        0.02    16.78   0.873
  B162                      48.70       0.00       0.00       5.25      38.56       4.66      42.76        0.01    13.09   0.878
  B163                      48.70       0.00       0.00       4.60      39.78       4.03      43.41        0.03    29.81   0.891
  B164                      48.70       0.00       0.00       4.12      40.68       3.60      43.92        0.04    37.87   0.902
  B210                      48.70       0.00       0.00       8.80      31.56      22.50      38.28        0.37   265.66   0.786
  B205                      48.70       0.00       0.00       4.22      40.46       3.66      44.13        0.03    26.72   0.906
  B206                      48.70       0.00       0.00       5.33      38.39       4.67      43.06        0.01    14.25   0.884
  B207                      48.70       0.00       0.00       5.40      38.23       4.72      42.96        0.02    15.40   0.882
  B208                      48.70       0.00       0.00       5.48      38.08       4.78      42.86        0.02    16.96   0.880
  B209                      48.70       0.00       0.00       5.53      37.97       4.80      42.77        0.02    19.01   0.878
  B211                      48.70       0.00       0.00       4.40      40.11       3.80      43.91        0.03    28.32   0.902
  B212                      48.70       0.00       0.00       5.40      38.26       4.78      43.05        0.01    13.72   0.884
  B213                      48.70       0.00       0.00       5.48      38.11       4.84      42.95        0.02    15.44   0.882
  B214                      48.70       0.00       0.00       5.10      38.81       4.45      43.25        0.03    27.45   0.888
  B215                      48.70       0.00       0.00       5.53      38.01       4.87      42.88        0.02    21.73   0.881
  B216                      48.70       0.00       0.00       5.08      38.87       4.45      43.31        0.03    30.99   0.889
  B217                      48.70       0.00       0.00       5.25      38.55       4.64      43.19        0.01    13.19   0.887
  B218                      48.70       0.00       0.00       5.25      38.55       4.64      43.19        0.01    13.19   0.887
  B219                      48.70       0.00       0.00       5.25      38.55       4.64      43.19        0.01    13.19   0.887
  B220                      48.70       0.00       0.00       5.48      38.10       4.82      42.92        0.02    16.17   0.881
  B221                      48.70       0.00       0.00       4.63      39.75       4.06      43.81        0.04    36.76   0.900
  B224                      48.70       0.00       0.00       5.24      38.57       4.69      43.26        0.01    13.32   0.888
  B223                      48.70       0.00       0.00       5.24      38.57       4.69      43.26        0.01    13.32   0.888
  B222                      48.70       0.00       0.00       3.95      41.06       3.48      44.55        0.02    22.73   0.915
  
  
  ******************
  Node Depth Summary
  ******************
  
  ---------------------------------------------------------------------------------
                                 Average  Maximum  Maximum  Time of Max    Reported
                                   Depth    Depth      HGL   Occurrence   Max Depth
  Node                 Type       Meters   Meters   Meters  days hr:min      Meters
  ---------------------------------------------------------------------------------
  P1                   JUNCTION     0.09     1.01  1048.20     0  00:31        0.90
  P2                   JUNCTION     0.13     1.13  1048.16     0  00:34        1.06
  P3                   JUNCTION     0.14     1.40  1048.09     0  00:34        1.32
  P4                   JUNCTION     0.20     1.57  1048.08     0  00:34        1.49
  P5                   JUNCTION     0.17     1.60  1047.79     0  00:34        1.53
  P6                   JUNCTION     0.25     1.77  1047.79     0  00:34        1.70
  P7                   JUNCTION     0.25     1.69  1047.48     0  00:34        1.62
  P8                   JUNCTION     0.14     1.11  1046.66     0  00:34        1.07
  P9                   JUNCTION     0.23     1.28  1046.66     0  00:34        1.24
  P10                  JUNCTION     0.05     0.23  1045.17     0  00:34        0.23
  P11                  JUNCTION     0.14     0.39  1045.16     0  00:34        0.39
  P12                  JUNCTION     0.06     0.30  1044.81     0  00:34        0.30
  P13                  JUNCTION     0.16     0.48  1044.81     0  00:34        0.47
  P17                  JUNCTION     0.05     0.57  1046.73     0  00:34        0.57
  P18                  JUNCTION     0.08     0.73  1046.72     0  00:34        0.73
  P19                  JUNCTION     0.04     0.64  1046.60     0  00:33        0.54
  P20                  JUNCTION     0.12     1.00  1046.49     0  00:34        1.00
  P23                  JUNCTION     0.03     0.70  1046.36     0  00:34        0.64
  P24                  JUNCTION     0.14     1.09  1046.35     0  00:34        1.05
  P25                  JUNCTION     0.04     0.26  1044.98     0  00:34        0.13
  P26                  JUNCTION     0.11     0.35  1044.92     0  00:34        0.35
  P27                  JUNCTION     0.09     0.34  1044.55     0  00:34        0.34
  P28                  JUNCTION     0.12     0.38  1044.55     0  00:34        0.38
  P29                  JUNCTION     0.04     0.17  1044.19     0  00:34        0.14
  P30                  JUNCTION     0.12     0.35  1044.20     0  00:34        0.35
  P31                  JUNCTION     0.44     0.55  1043.94     0  00:33        0.54
  P32                  JUNCTION     0.16     0.45  1043.67     0  00:34        0.44
  P33                  JUNCTION     0.04     0.22  1042.65     0  00:35        0.12
  P34                  JUNCTION     0.12     0.34  1042.60     0  00:34        0.34
  P35                  JUNCTION     0.03     0.16  1040.85     0  00:35        0.11
  P36                  JUNCTION     0.11     0.30  1040.81     0  00:34        0.30
  P37                  JUNCTION     0.04     0.13  1037.58     0  00:35        0.11
  P38                  JUNCTION     0.11     0.32  1037.60     0  00:34        0.32
  P39                  JUNCTION     0.03     0.20  1048.36     0  00:34        0.08
  P40                  JUNCTION     0.05     0.35  1048.34     0  00:34        0.28
  P41                  JUNCTION     0.07     1.07  1048.57     0  00:32        0.77
  P42                  JUNCTION     0.19     1.38  1048.30     0  00:34        1.33
  P43                  JUNCTION     0.09     1.11  1048.02     0  00:34        1.06
  P44                  JUNCTION     0.16     1.28  1048.02     0  00:34        1.23
  P45                  JUNCTION     0.10     1.18  1047.47     0  00:34        1.15
  P46                  JUNCTION     0.17     1.35  1047.47     0  00:34        1.32
  P47                  JUNCTION     0.10     1.10  1046.43     0  00:34        1.08
  P48                  JUNCTION     0.17     1.27  1046.43     0  00:34        1.25
  P49                  JUNCTION     0.09     1.16  1045.67     0  00:31        0.97
  P50                  JUNCTION     0.17     1.27  1045.60     0  00:31        1.16
  P51                  JUNCTION     0.03     0.12  1042.83     0  00:35        0.09
  P52                  JUNCTION     0.10     0.30  1042.84     0  00:34        0.30
  P53                  JUNCTION     0.05     0.15  1038.72     0  00:31        0.15
  P54                  JUNCTION     0.10     0.29  1038.69     0  00:34        0.29
  P55                  JUNCTION     0.14     0.42  1037.68     0  00:34        0.42
  P57                  JUNCTION     0.12     0.35  1037.21     0  00:34        0.35
  P58                  JUNCTION     0.20     0.60  1036.27     0  00:34        0.60
  P22                  JUNCTION     0.04     0.88  1046.41     0  00:34        0.88
  P21                  JUNCTION     0.04     0.82  1046.52     0  00:34        0.82
  P16                  JUNCTION     0.09     0.23  1044.26     0  00:34        0.23
  P14                  JUNCTION     0.19     0.54  1044.70     0  00:34        0.54
  P84                  JUNCTION     0.01     0.04  1044.32     0  00:33        0.04
  P85                  JUNCTION     0.02     0.06  1044.32     0  00:34        0.06
  P86                  JUNCTION     0.04     0.11  1040.61     0  00:34        0.11
  P87                  JUNCTION     0.07     0.21  1037.27     0  00:34        0.21
  P88                  JUNCTION     0.06     0.18  1036.84     0  00:33        0.18
  P89                  JUNCTION     0.20     0.64  1036.70     0  00:34        0.64
  P59                  JUNCTION     0.03     0.09  1047.77     0  00:34        0.09
  P61                  JUNCTION     0.07     0.22  1046.80     0  00:34        0.22
  P62                  JUNCTION     0.09     0.29  1046.52     0  00:34        0.29
  P63                  JUNCTION     0.09     0.31  1046.32     0  00:34        0.30
  P64                  JUNCTION     0.14     0.40  1045.88     0  00:34        0.40
  P65                  JUNCTION     0.16     0.49  1046.00     0  00:34        0.49
  P66                  JUNCTION     0.13     0.36  1045.68     0  00:34        0.36
  P67                  JUNCTION     0.11     0.29  1044.67     0  00:34        0.29
  P68                  JUNCTION     0.04     0.12  1044.70     0  00:34        0.12
  P69                  JUNCTION     0.10     0.28  1042.03     0  00:34        0.28
  P70                  JUNCTION     0.04     0.11  1042.05     0  00:34        0.11
  P71                  JUNCTION     0.11     0.31  1038.58     0  00:34        0.31
  P72                  JUNCTION     0.04     0.12  1038.59     0  00:34        0.12
  P73                  JUNCTION     0.12     0.37  1037.58     0  00:34        0.37
  P74                  JUNCTION     0.17     0.49  1037.29     0  00:34        0.49
  P75                  JUNCTION     0.17     0.50  1037.07     0  00:34        0.50
  P76                  JUNCTION     0.18     0.58  1036.80     0  00:34        0.57
  P77                  JUNCTION     0.05     0.43  1036.85     0  00:34        0.30
  P78                  JUNCTION     0.08     0.24  1039.03     0  00:34        0.24
  P79                  JUNCTION     0.05     0.16  1038.75     0  00:34        0.16
  P80                  JUNCTION     0.05     0.15  1043.35     0  00:34        0.15
  P81                  JUNCTION     0.05     0.16  1043.38     0  00:34        0.16
  P82                  JUNCTION     0.04     0.12  1046.29     0  00:34        0.12
  P83                  JUNCTION     0.06     0.18  1046.37     0  00:33        0.18
  P60                  JUNCTION     0.06     0.18  1047.32     0  00:34        0.18
  P62A                 JUNCTION     0.07     0.27  1046.52     0  00:34        0.27
  P61A                 JUNCTION     0.06     0.20  1046.80     0  00:34        0.20
  P90                  JUNCTION     0.04     0.11  1047.24     0  00:34        0.11
  P91                  JUNCTION     0.04     0.10  1047.04     0  00:34        0.10
  P92                  JUNCTION     0.04     0.11  1046.21     0  00:34        0.11
  P93                  JUNCTION     0.07     0.20  1046.10     0  00:34        0.20
  P94                  JUNCTION     0.03     0.09  1045.82     0  00:34        0.09
  P95                  JUNCTION     0.07     0.22  1045.75     0  00:34        0.22
  P96                  JUNCTION     0.03     0.10  1045.48     0  00:34        0.10
  P97                  JUNCTION     0.07     0.22  1045.40     0  00:34        0.22
  E1                   OUTFALL      0.20     0.60  1035.60     0  00:34        0.60
  E32                  OUTFALL      0.20     0.64  1036.60     0  00:34        0.64
  E33                  OUTFALL      0.07     0.22  1044.60     0  00:34        0.22
  
  
  *******************
  Node Inflow Summary
  *******************
  
  -------------------------------------------------------------------------------------------------
                                  Maximum  Maximum                  Lateral       Total        Flow
                                  Lateral    Total  Time of Max      Inflow      Inflow     Balance
                                   Inflow   Inflow   Occurrence      Volume      Volume       Error
  Node                 Type           LPS      LPS  days hr:min    10^6 ltr    10^6 ltr     Percent
  -------------------------------------------------------------------------------------------------
  P1                   JUNCTION     51.83    57.36     0  00:31      0.0539      0.0539      -0.062
  P2                   JUNCTION     51.98   123.95     0  00:31      0.0541       0.108      -0.012
  P3                   JUNCTION     51.68   136.36     0  00:31      0.0538       0.054      -0.112
  P4                   JUNCTION     51.68   230.31     0  00:31      0.0538       0.216       0.073
  P5                   JUNCTION     64.36   140.06     0  00:30      0.0676      0.0677       0.049
  P6                   JUNCTION     51.83   279.03     0  00:30      0.0539       0.337       0.015
  P7                   JUNCTION     50.78   302.34     0  00:34       0.054       0.391       0.013
  P8                   JUNCTION     64.15    64.15     0  00:34      0.0673      0.0673      -0.025
  P9                   JUNCTION     38.76   386.07     0  00:33      0.0403       0.499      -0.003
  P10                  JUNCTION     38.91    38.91     0  00:34      0.0405      0.0405       0.010
  P11                  JUNCTION     38.76   449.09     0  00:34      0.0403       0.579       0.010
  P12                  JUNCTION     55.15    55.15     0  00:34      0.0583      0.0583       0.003
  P13                  JUNCTION     47.40   542.36     0  00:34      0.0496       0.687       0.006
  P17                  JUNCTION     64.59    64.59     0  00:34      0.0672      0.0672       0.001
  P18                  JUNCTION     64.59   129.68     0  00:33      0.0672       0.134      -0.006
  P19                  JUNCTION     64.15    64.15     0  00:34      0.0673      0.0673       0.009
  P20                  JUNCTION     38.76   232.38     0  00:34      0.0403       0.242       0.005
  P23                  JUNCTION     25.39    25.39     0  00:34       0.027       0.027      -0.012
  P24                  JUNCTION     25.39   307.66     0  00:34       0.027       0.323       0.020
  P25                  JUNCTION     38.76    38.76     0  00:34      0.0403      0.0403       0.063
  P26                  JUNCTION     38.76   404.61     0  00:34      0.0403       0.404       0.006
  P27                  JUNCTION     38.76    38.76     0  00:34      0.0403      0.0403       0.005
  P28                  JUNCTION     38.76   453.95     0  00:34      0.0403       0.484       0.013
  P29                  JUNCTION     51.23    51.23     0  00:34      0.0539      0.0539       0.007
  P30                  JUNCTION     55.63   550.52     0  00:34      0.0589       0.597       0.007
  P31                  JUNCTION     26.20    26.20     0  00:34      0.0271      0.0271       1.721
  P32                  JUNCTION      0.00  1110.52     0  00:34           0        1.31       0.005
  P33                  JUNCTION     39.51    39.51     0  00:34      0.0404      0.0405       0.051
  P34                  JUNCTION      0.00  1161.83     0  00:34           0        1.35       0.005
  P35                  JUNCTION     26.34    26.34     0  00:34       0.027       0.027       0.034
  P36                  JUNCTION      0.00  1186.15     0  00:34           0        1.38       0.006
  P37                  JUNCTION     54.52    54.52     0  00:34      0.0561      0.0561      -0.001
  P38                  JUNCTION      0.00  1226.14     0  00:34           0        1.43      -0.002
  P39                  JUNCTION     25.94    25.94     0  00:34      0.0269      0.0269       0.013
  P40                  JUNCTION     51.87    77.71     0  00:33      0.0538      0.0807      -0.023
  P41                  JUNCTION     63.86    63.86     0  00:34      0.0673      0.0673      -0.010
  P42                  JUNCTION     64.47   197.79     0  00:32      0.0674       0.215       0.091
  P43                  JUNCTION     38.53   133.92     0  00:31      0.0405      0.0407       0.028
  P44                  JUNCTION     38.53   291.21     0  00:31      0.0405       0.296       0.039
  P45                  JUNCTION     51.87    80.41     0  00:31      0.0538      0.0539      -0.064
  P46                  JUNCTION     51.87   347.06     0  00:31      0.0538       0.404      -0.005
  P47                  JUNCTION     64.47    65.08     0  00:31      0.0674      0.0674       0.015
  P48                  JUNCTION     64.47   431.47     0  00:34      0.0674       0.538      -0.015
  P49                  JUNCTION     26.14    37.83     0  00:31      0.0271      0.0271      -0.050
  P50                  JUNCTION     26.16   471.34     0  00:34      0.0271       0.593       0.002
  P51                  JUNCTION     39.33    39.33     0  00:34      0.0404      0.0404       0.002
  P52                  JUNCTION     39.33   549.57     0  00:34      0.0404       0.674       0.009
  P53                  JUNCTION     82.29    82.29     0  00:34      0.0846      0.0846       0.001
  P54                  JUNCTION     52.62   683.30     0  00:34      0.0539       0.812       0.003
  P55                  JUNCTION     27.56   710.20     0  00:34      0.0284        0.84       0.004
  P57                  JUNCTION      0.00   709.71     0  00:34           0        0.84       0.044
  P58                  JUNCTION      0.00  1930.56     0  00:34           0        2.27       0.002
  P22                  JUNCTION      0.00    38.91     0  00:32           0      0.0271      -0.047
  P21                  JUNCTION     25.39    32.26     0  00:32       0.027       0.027       0.022
  P16                  JUNCTION      0.00   540.86     0  00:34           0       0.687       0.009
  P14                  JUNCTION      0.00   540.74     0  00:34           0       0.687       0.015
  P84                  JUNCTION      0.00     0.35     0  00:29           0    4.44e-05       0.237
  P85                  JUNCTION     29.81    29.89     0  00:34      0.0312      0.0313       0.016
  P86                  JUNCTION     60.69    90.49     0  00:34      0.0623      0.0935      -0.009
  P87                  JUNCTION     30.18   120.42     0  00:34      0.0309       0.124       0.011
  P88                  JUNCTION      0.00   120.06     0  00:34           0       0.124       0.136
  P89                  JUNCTION      0.00  1300.67     0  00:34           0        1.47       0.002
  P59                  JUNCTION     56.61    56.61     0  00:34      0.0589      0.0589       0.001
  P61                  JUNCTION     35.98   120.28     0  00:34      0.0379       0.127       0.008
  P62                  JUNCTION     56.36   176.22     0  00:34      0.0594       0.187       0.012
  P63                  JUNCTION     25.62   200.47     0  00:34      0.0272       0.214       0.012
  P64                  JUNCTION     39.24   504.06     0  00:34      0.0408        0.62       0.017
  P65                  JUNCTION    265.66   265.66     0  00:34       0.365       0.365       0.032
  P66                  JUNCTION     26.16   527.79     0  00:34      0.0272       0.647       0.028
  P67                  JUNCTION     64.86   651.82     0  00:34       0.068       0.782       0.025
  P68                  JUNCTION     64.65    64.65     0  00:34      0.0678      0.0678       0.002
  P69                  JUNCTION     39.81   739.90     0  00:34       0.041       0.878       0.022
  P70                  JUNCTION     53.07    53.07     0  00:34      0.0545      0.0545      -0.003
  P71                  JUNCTION     53.32   857.04     0  00:34      0.0545           1       0.011
  P72                  JUNCTION     68.84    68.84     0  00:34      0.0708      0.0708      -0.001
  P73                  JUNCTION     28.81   884.03     0  00:34      0.0298        1.03       0.004
  P74                  JUNCTION      0.00   884.93     0  00:34           0        1.03       0.011
  P75                  JUNCTION      0.00   886.27     0  00:34           0        1.03       0.020
  P76                  JUNCTION      0.00   960.60     0  00:34           0        1.07       0.015
  P77                  JUNCTION     27.00    61.73     0  00:32      0.0279      0.0337       0.187
  P78                  JUNCTION     39.53   237.26     0  00:33      0.0405       0.245       0.006
  P79                  JUNCTION     43.36   280.32     0  00:34      0.0446        0.29      -0.008
  P80                  JUNCTION     52.85   198.89     0  00:33      0.0541       0.205       0.001
  P81                  JUNCTION     41.97    41.97     0  00:34       0.043       0.043       0.003
  P82                  JUNCTION     52.51   110.31     0  00:33      0.0543       0.108      -0.010
  P83                  JUNCTION     50.95    50.95     0  00:34      0.0533      0.0533       0.045
  P60                  JUNCTION     28.32    84.91     0  00:34      0.0303      0.0892       0.017
  P62A                 JUNCTION      0.00     1.66     0  00:30           0    0.000337       0.117
  P61A                 JUNCTION      0.00     1.39     0  00:29           0    0.000238       0.191
  P90                  JUNCTION     52.72    52.72     0  00:34      0.0548      0.0548       0.006
  P91                  JUNCTION      0.00    52.70     0  00:34           0      0.0548      -0.006
  P92                  JUNCTION     55.73    55.73     0  00:34      0.0576      0.0576       0.003
  P93                  JUNCTION      0.00   108.31     0  00:34           0       0.112       0.011
  P94                  JUNCTION     36.76    36.76     0  00:34      0.0383      0.0383       0.002
  P95                  JUNCTION      0.00   144.52     0  00:34           0       0.151       0.019
  P96                  JUNCTION     49.37    49.37     0  00:34      0.0509      0.0509       0.002
  P97                  JUNCTION      0.00   193.41     0  00:34           0       0.202       0.008
  E1                   OUTFALL       0.00  1927.32     0  00:34           0        2.27       0.000
  E32                  OUTFALL       0.00  1296.75     0  00:34           0        1.47       0.000
  E33                  OUTFALL       0.00   193.19     0  00:34           0       0.202       0.000
  
  
  **********************
  Node Surcharge Summary
  **********************
  
  Surcharging occurs when water rises above the top of the highest conduit.
  ---------------------------------------------------------------------
                                               Max. Height   Min. Depth
                                   Hours       Above Crown    Below Rim
  Node                 Type      Surcharged         Meters       Meters
  ---------------------------------------------------------------------
  P1                   JUNCTION        0.13          0.606        0.000
  P2                   JUNCTION        0.14          0.733        0.000
  P3                   JUNCTION        0.16          1.001        0.000
  P4                   JUNCTION        0.16          1.168        0.000
  P5                   JUNCTION        0.18          1.205        0.000
  P6                   JUNCTION        0.19          1.374        0.000
  P7                   JUNCTION        0.20          1.295        0.000
  P8                   JUNCTION        0.17          0.714        0.000
  P9                   JUNCTION        0.21          0.884        0.000
  P17                  JUNCTION        0.01          0.169        0.431
  P18                  JUNCTION        0.02          0.326        0.274
  P19                  JUNCTION        0.01          0.241        0.359
  P20                  JUNCTION        0.07          0.603        0.000
  P23                  JUNCTION        0.01          0.301        0.299
  P24                  JUNCTION        0.09          0.687        0.118
  P31                  JUNCTION        1.41          0.148        1.252
  P41                  JUNCTION        0.10          0.675        0.000
  P42                  JUNCTION        0.12          0.979        0.000
  P43                  JUNCTION        0.10          0.711        0.000
  P44                  JUNCTION        0.11          0.878        0.000
  P45                  JUNCTION        0.11          0.784        0.000
  P46                  JUNCTION        0.12          0.951        0.000
  P47                  JUNCTION        0.11          0.699        0.000
  P48                  JUNCTION        0.13          0.869        0.000
  P49                  JUNCTION        0.11          0.760        0.200
  P50                  JUNCTION        0.14          0.869        0.091
  P22                  JUNCTION        0.05          0.476        0.000
  P21                  JUNCTION        0.01          0.419        0.056
  P65                  JUNCTION        0.13          0.094        0.676
  
  
  *********************
  Node Flooding Summary
  *********************
  
  Flooding refers to all water that overflows a node, whether it ponds or not.
  --------------------------------------------------------------------------
                                                             Total   Maximum
                                 Maximum   Time of Max       Flood    Ponded
                        Hours       Rate    Occurrence      Volume     Depth
  Node                 Flooded       LPS   days hr:min    10^6 ltr    Meters
  --------------------------------------------------------------------------
  P1                      0.01     35.85      0  00:31       0.000     0.006
  P2                      0.06     35.66      0  00:31       0.001     0.133
  P3                      0.11    118.05      0  00:31       0.001     0.421
  P4                      0.14    129.08      0  00:31       0.006     0.588
  P5                      0.14     40.19      0  00:30       0.001     0.605
  P6                      0.16    102.87      0  00:30       0.006     0.774
  P7                      0.17     64.05      0  00:30       0.004     0.695
  P8                      0.07      5.00      0  00:33       0.000     0.114
  P9                      0.14     28.09      0  00:32       0.003     0.284
  P20                     0.01     33.83      0  00:31       0.000     0.003
  P42                     0.10     60.32      0  00:32       0.003     0.304
  P43                     0.05    107.76      0  00:31       0.000     0.111
  P44                     0.10    115.00      0  00:31       0.003     0.278
  P45                     0.06     50.46      0  00:31       0.000     0.184
  P46                     0.10     69.41      0  00:31       0.003     0.351
  P47                     0.04     24.57      0  00:31       0.000     0.099
  P48                     0.08     31.94      0  00:31       0.002     0.269
  P22                     0.01      5.96      0  00:34       0.000     0.001
  
  
  ***********************
  Outfall Loading Summary
  ***********************
  
  -----------------------------------------------------------
                         Flow       Avg       Max       Total
                         Freq      Flow      Flow      Volume
  Outfall Node           Pcnt       LPS       LPS    10^6 ltr
  -----------------------------------------------------------
  E1                    95.02    424.32   1927.32       2.274
  E32                   95.22    274.36   1296.75       1.474
  E33                   95.04     37.59    193.19       0.202
  -----------------------------------------------------------
  System                95.09    736.27   3413.61       3.949
  
  
  
  ********************
  Link Flow Summary
  ********************
  
  -----------------------------------------------------------------------------
                                 Maximum  Time of Max   Maximum    Max/    Max/
                                  |Flow|   Occurrence   |Veloc|    Full    Full
  Link                 Type          LPS  days hr:min     m/sec    Flow   Depth
  -----------------------------------------------------------------------------
  G1                   CONDUIT     74.58     0  00:31      1.13    0.23    1.00
  G2                   CONDUIT    132.21     0  00:31      1.20    0.63    1.00
  G3                   CONDUIT     99.36     0  00:31      0.84    0.34    1.00
  G4                   CONDUIT    170.96     0  00:31      1.47    0.82    1.00
  G5                   CONDUIT     88.35     0  00:30      0.76    0.27    1.00
  G6                   CONDUIT    252.26     0  00:34      2.01    1.17    1.00
  G7                   CONDUIT    292.28     0  00:35      2.33    1.41    1.00
  G8                   CONDUIT     71.61     0  00:40      0.71    0.22    1.00
  G38                  CONDUIT     35.93     0  00:36      0.95    0.11    0.67
  G39                  CONDUIT     74.88     0  00:32      0.84    0.25    0.93
  G40                  CONDUIT    100.05     0  00:38      1.12    0.17    1.00
  G41                  CONDUIT    212.52     0  00:37      1.69    1.65    1.00
  G42                  CONDUIT     98.00     0  00:31      0.84    0.30    1.00
  G43                  CONDUIT    255.61     0  00:37      2.04    1.08    1.00
  G44                  CONDUIT     99.80     0  00:31      0.79    0.31    1.00
  G45                  CONDUIT    328.87     0  00:36      2.62    1.12    1.00
  G46                  CONDUIT     72.34     0  00:31      0.90    0.22    1.00
  G47                  CONDUIT    426.57     0  00:35      3.39    1.08    1.00
  G48                  CONDUIT     32.87     0  00:31      0.46    0.10    1.00
  G49                  CONDUIT    471.18     0  00:34      4.10    1.17    0.88
  G50                  CONDUIT     39.31     0  00:34      0.77    0.12    0.51
  G51                  CONDUIT    548.88     0  00:34      5.48    0.91    0.75
  G52                  CONDUIT     82.28     0  00:34      1.25    0.25    0.55
  G53                  CONDUIT    682.83     0  00:34      3.91    0.48    0.59
  G54                  CONDUIT    709.71     0  00:34      3.70    0.83    0.64
  G56                  CONDUIT    709.37     0  00:34      3.91    0.65    0.65
  G16                  CONDUIT     66.77     0  00:34      1.17    0.21    1.00
  G17                  CONDUIT    129.91     0  00:33      1.29    0.62    1.00
  G18                  CONDUIT     74.41     0  00:31      0.95    0.14    1.00
  G19                  CONDUIT    234.98     0  00:34      1.87    1.11    1.00
  G20                  CONDUIT     38.91     0  00:32      1.47    0.12    1.00
  G21                  CONDUIT     43.62     0  00:35      0.46    0.13    1.00
  G22                  CONDUIT     33.79     0  00:32      0.48    0.07    1.00
  G23                  CONDUIT    308.20     0  00:34      2.48    1.48    0.97
  G24                  CONDUIT     66.47     0  00:33      0.79    0.22    0.75
  G25                  CONDUIT    383.85     0  00:34      2.15    0.63    0.61
  G26                  CONDUIT     39.08     0  00:33      0.40    0.24    0.90
  G27                  CONDUIT    448.92     0  00:34      2.49    0.73    0.61
  G28                  CONDUIT     54.72     0  00:33      0.76    0.17    0.65
  G9                   CONDUIT    373.01     0  00:34      2.97    1.79    1.00
  G10                  CONDUIT     45.34     0  00:33      0.53    0.14    0.77
  G11                  CONDUIT    443.94     0  00:34      2.07    0.72    0.72
  G12                  CONDUIT     62.35     0  00:31      0.64    0.19    0.88
  G13                  CONDUIT    540.74     0  00:34      2.11    0.85    0.85
  G14                  CONDUIT    540.86     0  00:34      2.83    1.70    0.64
  G29                  CONDUIT    547.91     0  00:34      3.23    0.64    0.58
  G15                  CONDUIT    540.71     0  00:34      3.36    0.31    0.56
  G30                  CONDUIT     26.26     0  00:33      0.35    0.05    0.58
  G31                  CONDUIT   1111.19     0  00:34      4.59    0.58    0.49
  G33                  CONDUIT   1155.32     0  00:34      6.22    0.36    0.40
  G34                  CONDUIT     39.25     0  00:34      0.79    0.12    0.57
  G35                  CONDUIT   1180.12     0  00:34      6.61    0.30    0.39
  G36                  CONDUIT     54.50     0  00:34      0.98    0.17    0.55
  G37                  CONDUIT   1223.07     0  00:34      6.25    0.33    0.43
  G32                  CONDUIT     58.86     0  00:33      0.98    0.18    0.69
  G57                  CONDUIT   1927.32     0  00:34      4.76    0.91    0.75
  G58                  CONDUIT     56.59     0  00:34      1.56    0.11    0.33
  G59                  CONDUIT     84.44     0  00:34      1.58    0.41    0.44
  G61                  CONDUIT    120.06     0  00:34      1.43    0.57    0.63
  G63                  CONDUIT    175.35     0  00:34      1.75    0.86    0.74
  G64                  CONDUIT    199.70     0  00:34      1.70    0.93    0.88
  G66                  CONDUIT    265.77     0  00:34      2.11    1.98    1.00
  G65                  CONDUIT    502.18     0  00:34      2.64    0.79    0.64
  G67                  CONDUIT    528.07     0  00:34      3.40    0.66    0.54
  G68                  CONDUIT     64.62     0  00:34      1.09    0.18    0.50
  G69                  CONDUIT    651.87     0  00:34      4.92    0.46    0.48
  G70                  CONDUIT     53.06     0  00:34      1.06    0.15    0.49
  G71                  CONDUIT    738.74     0  00:34      5.32    0.46    0.49
  G72                  CONDUIT     68.83     0  00:34      1.16    0.20    0.53
  G73                  CONDUIT    856.04     0  00:34      5.22    0.52    0.56
  G74                  CONDUIT    884.93     0  00:34      4.11    0.64    0.71
  G75                  CONDUIT    886.27     0  00:34      2.71    0.67    0.62
  G76                  CONDUIT    888.07     0  00:34      2.52    0.67    0.67
  G78                  CONDUIT    917.87     0  00:34      2.31    0.70    0.76
  G77                  CONDUIT     84.62     0  00:32      0.68    0.08    0.83
  G60                  CONDUIT      1.39     0  00:29      0.12    0.01    0.53
  G62                  CONDUIT      1.66     0  00:30      0.12    0.01    0.70
  G79                  CONDUIT     58.03     0  00:34      1.41    0.52    0.37
  G80                  CONDUIT    104.32     0  00:34      2.85    0.19    0.33
  G81                  CONDUIT     41.95     0  00:34      0.99    0.38    0.38
  G82                  CONDUIT    197.83     0  00:34      3.27    0.29    0.49
  G83                  CONDUIT    236.99     0  00:34      3.74    0.67    0.50
  G84                  CONDUIT    280.26     0  00:34      2.97    0.35    0.70
  G85                  CONDUIT      0.35     0  00:29      0.07    0.00    0.12
  G86                  CONDUIT     29.80     0  00:34      1.57    0.05    0.21
  G87                  CONDUIT     90.25     0  00:34      1.98    0.15    0.39
  G88                  CONDUIT    120.06     0  00:34      1.84    0.53    0.52
  G89                  CONDUIT    120.63     0  00:34      1.65    0.19    0.38
  G90                  CONDUIT     52.70     0  00:34      2.04    0.15    0.26
  G91                  CONDUIT     52.61     0  00:34      1.21    0.14    0.38
  G92                  CONDUIT     55.71     0  00:34      1.25    0.16    0.39
  G94                  CONDUIT     36.75     0  00:34      0.87    0.10    0.38
  G93                  CONDUIT    107.92     0  00:34      1.61    0.50    0.53
  G95                  CONDUIT    144.26     0  00:34      2.05    0.58    0.55
  G96                  CONDUIT     49.37     0  00:34      1.17    0.14    0.40
  G152                 CONDUIT   1296.75     0  00:34      3.00    0.98    0.80
  G153                 CONDUIT    193.19     0  00:34      2.76    0.58    0.55
  
  
  ***************************
  Flow Classification Summary
  ***************************
  
  -------------------------------------------------------------------------------------
                      Adjusted    ---------- Fraction of Time in Flow Class ---------- 
                       /Actual         Up    Down  Sub   Sup   Up    Down  Norm  Inlet 
  Conduit               Length    Dry  Dry   Dry   Crit  Crit  Crit  Crit  Ltd   Ctrl  
  -------------------------------------------------------------------------------------
  G1                      1.00   0.04  0.00  0.00  0.42  0.53  0.00  0.00  0.82  0.00
  G2                      1.00   0.04  0.00  0.00  0.92  0.04  0.00  0.00  0.81  0.00
  G3                      1.00   0.04  0.00  0.00  0.93  0.03  0.00  0.00  0.82  0.00
  G4                      1.00   0.04  0.00  0.00  0.41  0.55  0.00  0.00  0.80  0.00
  G5                      1.00   0.04  0.00  0.00  0.93  0.02  0.00  0.00  0.81  0.00
  G6                      1.00   0.04  0.00  0.00  0.28  0.68  0.00  0.00  0.53  0.00
  G7                      1.00   0.04  0.00  0.00  0.32  0.63  0.00  0.00  0.67  0.00
  G8                      1.00   0.04  0.00  0.00  0.92  0.03  0.00  0.00  0.76  0.00
  G38                     1.00   0.04  0.00  0.00  0.38  0.58  0.00  0.00  0.93  0.00
  G39                     1.00   0.04  0.00  0.00  0.93  0.02  0.00  0.00  0.89  0.00
  G40                     1.00   0.04  0.00  0.00  0.93  0.03  0.00  0.00  0.88  0.00
  G41                     1.00   0.04  0.00  0.00  0.93  0.02  0.00  0.00  0.00  0.00
  G42                     1.00   0.04  0.00  0.00  0.93  0.03  0.00  0.00  0.84  0.00
  G43                     1.00   0.04  0.00  0.00  0.10  0.85  0.00  0.00  0.74  0.00
  G44                     1.00   0.04  0.00  0.00  0.92  0.04  0.00  0.00  0.84  0.00
  G45                     1.00   0.04  0.00  0.00  0.09  0.87  0.00  0.00  0.43  0.00
  G46                     1.00   0.04  0.00  0.00  0.92  0.04  0.00  0.00  0.85  0.00
  G47                     1.00   0.04  0.00  0.00  0.09  0.87  0.00  0.00  0.77  0.00
  G48                     1.00   0.04  0.00  0.00  0.94  0.02  0.00  0.00  0.82  0.00
  G49                     1.00   0.04  0.00  0.00  0.00  0.95  0.00  0.00  0.02  0.00
  G50                     1.00   0.04  0.00  0.00  0.92  0.04  0.00  0.00  0.89  0.00
  G51                     1.00   0.04  0.00  0.00  0.00  0.96  0.00  0.00  0.84  0.00
  G52                     1.00   0.04  0.00  0.00  0.89  0.07  0.00  0.00  0.88  0.00
  G53                     1.00   0.04  0.00  0.00  0.00  0.96  0.00  0.00  0.94  0.00
  G54                     1.00   0.04  0.00  0.00  0.00  0.96  0.00  0.00  0.13  0.00
  G56                     1.00   0.04  0.00  0.00  0.00  0.10  0.00  0.86  0.09  0.00
  G16                     1.00   0.04  0.00  0.00  0.36  0.60  0.00  0.00  0.84  0.00
  G17                     1.00   0.04  0.00  0.00  0.48  0.48  0.00  0.00  0.88  0.00
  G18                     1.00   0.04  0.00  0.00  0.93  0.03  0.00  0.00  0.91  0.00
  G19                     1.00   0.04  0.00  0.00  0.37  0.59  0.00  0.00  0.61  0.00
  G20                     1.00   0.04  0.00  0.00  0.06  0.89  0.00  0.00  0.16  0.00
  G21                     1.00   0.04  0.00  0.00  0.95  0.00  0.00  0.00  0.88  0.00
  G22                     1.00   0.04  0.00  0.00  0.93  0.02  0.00  0.00  0.90  0.00
  G23                     1.00   0.04  0.00  0.00  0.00  0.00  0.00  0.96  0.00  0.00
  G24                     1.00   0.04  0.00  0.00  0.93  0.03  0.00  0.00  0.85  0.00
  G25                     1.00   0.04  0.00  0.00  0.02  0.93  0.00  0.00  0.73  0.00
  G26                     1.00   0.04  0.00  0.00  0.94  0.01  0.00  0.00  0.28  0.00
  G27                     1.00   0.04  0.00  0.00  0.01  0.94  0.00  0.00  0.29  0.00
  G28                     1.00   0.04  0.00  0.00  0.93  0.03  0.00  0.00  0.89  0.00
  G9                      1.00   0.04  0.00  0.00  0.00  0.00  0.00  0.96  0.00  0.00
  G10                     1.00   0.04  0.00  0.00  0.93  0.02  0.00  0.00  0.79  0.00
  G11                     1.00   0.04  0.00  0.00  0.01  0.95  0.00  0.00  0.66  0.00
  G12                     1.00   0.04  0.00  0.00  0.93  0.02  0.00  0.00  0.76  0.00
  G13                     1.00   0.04  0.00  0.00  0.38  0.58  0.00  0.00  0.30  0.00
  G14                     1.00   0.05  0.00  0.00  0.02  0.93  0.00  0.00  0.00  0.00
  G29                     1.00   0.04  0.00  0.00  0.00  0.00  0.00  0.96  0.00  0.00
  G15                     1.00   0.05  0.01  0.00  0.03  0.92  0.00  0.00  0.95  0.00
  G30                     1.00   0.04  0.06  0.00  0.00  0.00  0.90  0.00  0.00  0.00
  G31                     1.00   0.04  0.00  0.00  0.02  0.94  0.00  0.00  0.02  0.00
  G33                     1.00   0.04  0.00  0.00  0.00  0.95  0.00  0.00  0.00  0.00
  G34                     1.00   0.04  0.00  0.00  0.91  0.05  0.00  0.00  0.84  0.00
  G35                     1.00   0.04  0.00  0.00  0.00  0.95  0.00  0.00  0.91  0.00
  G36                     1.00   0.04  0.00  0.00  0.90  0.06  0.00  0.00  0.90  0.00
  G37                     1.00   0.04  0.00  0.00  0.00  0.06  0.00  0.90  0.05  0.00
  G32                     1.00   0.04  0.00  0.00  0.91  0.05  0.00  0.00  0.82  0.00
  G57                     1.00   0.05  0.00  0.00  0.00  0.95  0.00  0.00  0.55  0.00
  G58                     1.00   0.04  0.00  0.00  0.26  0.70  0.00  0.00  0.94  0.00
  G59                     1.00   0.04  0.00  0.00  0.00  0.00  0.00  0.96  0.00  0.00
  G61                     1.00   0.04  0.00  0.00  0.30  0.66  0.00  0.00  0.87  0.00
  G63                     1.00   0.04  0.00  0.00  0.16  0.80  0.00  0.00  0.61  0.00
  G64                     1.00   0.04  0.00  0.00  0.73  0.23  0.00  0.00  0.93  0.00
  G66                     1.00   0.04  0.00  0.00  0.38  0.57  0.00  0.00  0.04  0.00
  G65                     1.00   0.04  0.00  0.00  0.01  0.95  0.00  0.00  0.43  0.00
  G67                     1.00   0.04  0.00  0.00  0.01  0.94  0.00  0.00  0.02  0.00
  G68                     1.00   0.04  0.00  0.00  0.87  0.08  0.00  0.00  0.91  0.00
  G69                     1.00   0.04  0.00  0.00  0.00  0.96  0.00  0.00  0.09  0.00
  G70                     1.00   0.04  0.00  0.00  0.89  0.07  0.00  0.00  0.92  0.00
  G71                     1.00   0.04  0.00  0.00  0.00  0.96  0.00  0.00  0.94  0.00
  G72                     1.00   0.04  0.00  0.00  0.88  0.08  0.00  0.00  0.92  0.00
  G73                     1.00   0.04  0.00  0.00  0.00  0.96  0.00  0.00  0.92  0.00
  G74                     1.00   0.04  0.00  0.00  0.00  0.96  0.00  0.00  0.81  0.00
  G75                     1.00   0.04  0.00  0.00  0.00  0.95  0.00  0.00  0.61  0.00
  G76                     1.00   0.04  0.00  0.00  0.01  0.94  0.00  0.00  0.59  0.00
  G78                     1.00   0.04  0.00  0.00  0.10  0.85  0.00  0.00  0.35  0.00
  G77                     1.00   0.04  0.00  0.00  0.93  0.03  0.00  0.00  0.68  0.00
  G60                     1.00   0.04  0.02  0.00  0.94  0.00  0.00  0.00  0.18  0.00
  G62                     1.00   0.04  0.02  0.00  0.94  0.00  0.00  0.00  0.19  0.00
  G79                     1.00   0.04  0.00  0.00  0.28  0.67  0.00  0.00  0.02  0.00
  G80                     1.00   0.04  0.00  0.00  0.00  0.96  0.00  0.00  0.96  0.00
  G81                     1.00   0.04  0.00  0.00  0.94  0.02  0.00  0.00  0.31  0.00
  G82                     1.00   0.04  0.00  0.00  0.00  0.96  0.00  0.00  0.96  0.00
  G83                     1.00   0.04  0.00  0.00  0.00  0.96  0.00  0.00  0.11  0.00
  G84                     1.00   0.04  0.00  0.00  0.57  0.38  0.00  0.00  0.95  0.00
  G85                     1.00   0.04  0.25  0.00  0.71  0.00  0.00  0.00  0.47  0.00
  G86                     1.00   0.04  0.00  0.00  0.01  0.95  0.00  0.00  0.96  0.00
  G87                     1.00   0.04  0.00  0.00  0.00  0.96  0.00  0.00  0.95  0.00
  G88                     1.00   0.04  0.00  0.00  0.00  0.00  0.00  0.96  0.00  0.00
  G89                     1.00   0.05  0.00  0.00  0.01  0.04  0.00  0.90  0.02  0.00
  G90                     1.00   0.04  0.00  0.00  0.00  0.96  0.00  0.00  0.38  0.00
  G91                     1.00   0.04  0.00  0.00  0.30  0.66  0.00  0.00  0.95  0.00
  G92                     1.00   0.04  0.00  0.00  0.31  0.64  0.00  0.00  0.88  0.00
  G94                     1.00   0.04  0.00  0.00  0.92  0.03  0.00  0.00  0.94  0.00
  G93                     1.00   0.04  0.00  0.00  0.19  0.76  0.00  0.00  0.81  0.00
  G95                     1.00   0.04  0.00  0.00  0.02  0.94  0.00  0.00  0.51  0.00
  G96                     1.00   0.04  0.00  0.00  0.71  0.25  0.00  0.00  0.88  0.00
  G152                    1.00   0.04  0.00  0.00  0.00  0.95  0.00  0.00  0.52  0.00
  G153                    1.00   0.04  0.00  0.00  0.00  0.95  0.00  0.00  0.39  0.00
  
  
  *************************
  Conduit Surcharge Summary
  *************************
  
  ----------------------------------------------------------------------------
                                                           Hours        Hours 
                         --------- Hours Full --------   Above Full   Capacity
  Conduit                Both Ends  Upstream  Dnstream   Normal Flow   Limited
  ----------------------------------------------------------------------------
  G1                          0.13      0.13      0.14      0.01         0.01
  G2                          0.14      0.14      0.16      0.01         0.01
  G3                          0.15      0.16      0.16      0.01         0.01
  G4                          0.16      0.16      0.19      0.01         0.01
  G5                          0.18      0.18      0.19      0.01         0.01
  G6                          0.19      0.19      0.20      0.14         0.15
  G7                          0.20      0.20      0.21      0.19         0.18
  G8                          0.17      0.17      0.21      0.01         0.01
  G39                         0.01      0.01      0.12      0.01         0.01
  G40                         0.10      0.10      0.12      0.01         0.01
  G41                         0.10      0.12      0.11      0.15         0.10
  G42                         0.10      0.10      0.11      0.01         0.01
  G43                         0.11      0.11      0.12      0.02         0.02
  G44                         0.11      0.11      0.12      0.01         0.01
  G45                         0.12      0.12      0.13      0.11         0.10
  G46                         0.11      0.11      0.13      0.01         0.01
  G47                         0.13      0.13      0.14      0.10         0.10
  G48                         0.11      0.11      0.14      0.01         0.01
  G49                         0.01      0.14      0.01      0.15         0.01
  G16                         0.01      0.01      0.02      0.01         0.01
  G17                         0.02      0.02      0.07      0.01         0.01
  G18                         0.01      0.01      0.07      0.01         0.01
  G19                         0.07      0.07      0.09      0.03         0.03
  G20                         0.01      0.01      0.05      0.01         0.01
  G21                         0.05      0.05      0.09      0.01         0.01
  G22                         0.01      0.01      0.09      0.01         0.01
  G23                         0.01      0.09      0.01      0.12         0.01
  G9                          0.10      0.21      0.10      0.23         0.10
  G12                         0.01      0.01      0.15      0.01         0.01
  G14                         0.01      0.01      0.01      0.20         0.01
  G30                         0.01      0.01      1.41      0.01         0.01
  G64                         0.01      0.01      0.01      0.01         0.01
  G66                         0.01      0.13      0.01      0.27         0.01
  G84                         0.01      0.01      0.18      0.01         0.01
  

  Analysis begun on:  Thu Aug 21 12:32:39 2025
  Analysis ended on:  Thu Aug 21 12:32:45 2025
  Total elapsed time: 00:00:06