
  EPA STORM WATER MANAGEMENT MODEL - VERSION 5.2 (Build 5.2.4)
  PYSWMM TOOLKIT API - VERSION v1.0 (2023-11-27)
  ------------------------------------------------------------

  test 
  
  ****************
  Analysis Options
  ****************
  Flow Units ............... LPS
  Process Models:
    Rainfall/Runoff ........ YES
    RDII ................... NO
    Snowmelt ............... NO
    Groundwater ............ NO
    Flow Routing ........... YES
    Ponding Allowed ........ YES
    Water Quality .......... NO
  Infiltration Method ...... CURVE_NUMBER
  Flow Routing Method ...... DYNWAVE
  Surcharge Method ......... EXTRAN
  Starting Date ............ 11/13/2024 00:00:00
  Ending Date .............. 11/13/2024 00:30:00
  Antecedent Dry Days ...... 7.0
  Report Time Step ......... 00:05:00
  Wet Time Step ............ 00:01:00
  Dry Time Step ............ 01:00:00
  Routing Time Step ........ 0.60 sec
  Variable Time Step ....... YES
  Maximum Trials ........... 8
  Number of Threads ........ 1
  Head Tolerance ........... 0.001500 m
  
  
  **************************        Volume         Depth
  Runoff Quantity Continuity     hectare-m            mm
  **************************     ---------       -------
  Total Precipitation ......         0.129        13.900
  Evaporation Loss .........         0.000         0.000
  Infiltration Loss ........         0.031         3.329
  Surface Runoff ...........         0.099        10.659
  Final Storage ............         0.001         0.125
  Continuity Error (%) .....        -1.530
  
  
  **************************        Volume        Volume
  Flow Routing Continuity        hectare-m      10^6 ltr
  **************************     ---------     ---------
  Dry Weather Inflow .......         0.000         0.000
  Wet Weather Inflow .......         0.099         0.988
  Groundwater Inflow .......         0.000         0.000
  RDII Inflow ..............         0.000         0.000
  External Inflow ..........         0.000         0.000
  External Outflow .........         0.098         0.981
  Flooding Loss ............         0.000         0.000
  Evaporation Loss .........         0.000         0.000
  Exfiltration Loss ........         0.000         0.000
  Initial Stored Volume ....         0.000         0.000
  Final Stored Volume ......         0.001         0.007
  Continuity Error (%) .....        -0.024
  
  
  *************************
  Highest Continuity Errors
  *************************
  Node P31 (6.26%)
  
  
  ***************************
  Time-Step Critical Elements
  ***************************
  None
  
  
  ********************************
  Highest Flow Instability Indexes
  ********************************
  Link G30 (9)
  Link G8 (8)
  Link G3 (6)
  Link G5 (6)
  Link G79 (6)
  
  
  *********************************
  Most Frequent Nonconverging Nodes
  *********************************
  Node E1 (8.17%)
  Node E32 (8.17%)
  Node E33 (8.17%)
  Node P50 (1.97%)
  Node P49 (1.69%)
  
  
  *************************
  Routing Time Step Summary
  *************************
  Minimum Time Step           :     0.40 sec
  Average Time Step           :     0.50 sec
  Maximum Time Step           :     0.60 sec
  % of Time in Steady State   :     0.00
  Average Iterations per Step :     2.65
  % of Steps Not Converging   :     8.17
  Time Step Frequencies       :
      0.600 -  0.579 sec      :    98.78 %
      0.579 -  0.558 sec      :     0.06 %
      0.558 -  0.538 sec      :     0.00 %
      0.538 -  0.519 sec      :     0.00 %
      0.519 -  0.500 sec      :     1.16 %
  
  
  ***************************
  Subcatchment Runoff Summary
  ***************************
  
  ------------------------------------------------------------------------------------------------------------------------------
                            Total      Total      Total      Total     Imperv       Perv      Total       Total     Peak  Runoff
                           Precip      Runon       Evap      Infil     Runoff     Runoff     Runoff      Runoff   Runoff   Coeff
  Subcatchment                 mm         mm         mm         mm         mm         mm         mm    10^6 ltr      LPS
  ------------------------------------------------------------------------------------------------------------------------------
  B140                      13.90       0.00       0.00       2.30      11.80       0.02      11.82        0.01    25.77   0.850
  B139                      13.90       0.00       0.00       2.54      11.57       0.02      11.59        0.01    24.95   0.834
  B141                      13.90       0.00       0.00       2.89      11.26       0.04      11.29        0.00    11.74   0.813
  B142                      13.90       0.00       0.00       2.89      11.26       0.04      11.29        0.00    11.74   0.813
  B144                      13.90       0.00       0.00       2.89      11.26       0.04      11.29        0.00    11.74   0.813
  B145                      13.90       0.00       0.00       2.89      11.26       0.04      11.29        0.00    11.74   0.813
  B146                      13.90       0.00       0.00       2.89      11.26       0.04      11.29        0.00    11.74   0.813
  B147                      13.90       0.00       0.00       2.89      11.26       0.04      11.29        0.00    11.74   0.813
  B148                      13.90       0.00       0.00       2.89      11.26       0.04      11.29        0.00    11.74   0.813
  B149                      13.90       0.00       0.00       2.36      11.72       0.02      11.74        0.01    23.91   0.844
  B108                      13.90       0.00       0.00       2.90      11.15       0.02      11.17        0.00    11.60   0.803
  B42                       13.90       0.00       0.00       2.90      11.13       0.01      11.14        0.00    11.57   0.802
  B40                       13.90       0.00       0.00       2.90      11.13       0.01      11.14        0.00    11.57   0.802
  B38                       13.90       0.00       0.00       2.90      11.13       0.01      11.14        0.00    11.57   0.802
  B36                       13.90       0.00       0.00       2.90      11.13       0.01      11.14        0.00    11.57   0.802
  B34                       13.90       0.00       0.00       2.90      11.13       0.01      11.14        0.00    11.57   0.802
  B32                       13.90       0.00       0.00       2.90      11.13       0.01      11.14        0.00    11.57   0.802
  B30                       13.90       0.00       0.00       2.90      11.13       0.01      11.14        0.00    11.57   0.802
  B9                        13.90       0.00       0.00       2.90      11.13       0.01      11.14        0.00    11.57   0.802
  B7                        13.90       0.00       0.00       2.90      11.13       0.01      11.14        0.00    11.58   0.802
  B5                        13.90       0.00       0.00       2.90      11.13       0.01      11.14        0.00    11.57   0.802
  B3                        13.90       0.00       0.00       2.90      11.13       0.01      11.14        0.00    11.57   0.802
  B1                        13.90       0.00       0.00       2.90      11.13       0.01      11.14        0.00    11.58   0.802
  B23                       13.90       0.00       0.00       2.90      11.13       0.01      11.14        0.00    11.58   0.802
  B21                       13.90       0.00       0.00       2.90      11.13       0.01      11.14        0.00    11.57   0.802
  B19                       13.90       0.00       0.00       2.90      11.13       0.01      11.14        0.00    11.57   0.802
  B17                       13.90       0.00       0.00       2.90      11.13       0.01      11.14        0.00    11.57   0.802
  B15                       13.90       0.00       0.00       2.90      11.13       0.01      11.14        0.00    11.57   0.802
  B13                       13.90       0.00       0.00       2.90      11.13       0.01      11.14        0.00    11.57   0.802
  B11                       13.90       0.00       0.00       2.90      11.13       0.01      11.14        0.00    11.57   0.802
  B129                      13.90       0.00       0.00       2.89      11.26       0.04      11.29        0.00    11.74   0.813
  B127                      13.90       0.00       0.00       2.89      11.26       0.04      11.29        0.00    11.74   0.813
  B125                      13.90       0.00       0.00       2.89      11.26       0.04      11.29        0.00    11.74   0.813
  B123                      13.90       0.00       0.00       2.90      11.23       0.03      11.25        0.00    11.67   0.809
  B121                      13.90       0.00       0.00       2.90      11.23       0.03      11.25        0.00    11.67   0.809
  B120                      13.90       0.00       0.00       2.90      11.23       0.03      11.25        0.00    11.67   0.809
  B119                      13.90       0.00       0.00       2.90      11.23       0.03      11.25        0.00    11.67   0.809
  B113                      13.90       0.00       0.00       2.90      11.15       0.02      11.17        0.00    11.60   0.803
  B111                      13.90       0.00       0.00       2.90      11.15       0.02      11.17        0.00    11.60   0.803
  B109                      13.90       0.00       0.00       2.90      11.15       0.02      11.17        0.00    11.60   0.803
  B107                      13.90       0.00       0.00       2.90      11.15       0.02      11.17        0.00    11.60   0.803
  B105                      13.90       0.00       0.00       2.90      11.15       0.02      11.17        0.00    11.60   0.803
  B103                      13.90       0.00       0.00       2.90      11.15       0.02      11.17        0.00    11.60   0.803
  B101                      13.90       0.00       0.00       2.90      11.15       0.02      11.17        0.00    11.60   0.803
  BB118                     13.90       0.00       0.00       2.36      11.70       0.02      11.71        0.01    23.86   0.843
  B99                       13.90       0.00       0.00       2.36      11.53       0.01      11.54        0.01    23.26   0.830
  B28                       13.90       0.00       0.00       2.36      11.49       0.01      11.50        0.01    23.02   0.827
  B115                      13.90       0.00       0.00       2.90      11.15       0.02      11.17        0.00    11.60   0.803
  B22                       13.90       0.00       0.00       2.90      11.13       0.01      11.14        0.00    11.57   0.802
  B20                       13.90       0.00       0.00       2.90      11.13       0.01      11.14        0.00    11.57   0.802
  B18                       13.90       0.00       0.00       2.90      11.13       0.01      11.14        0.00    11.57   0.802
  B16                       13.90       0.00       0.00       2.90      11.13       0.01      11.14        0.00    11.57   0.802
  B14                       13.90       0.00       0.00       2.90      11.13       0.01      11.14        0.00    11.57   0.802
  B12                       13.90       0.00       0.00       2.90      11.13       0.01      11.14        0.00    11.57   0.802
  B10                       13.90       0.00       0.00       2.90      11.13       0.01      11.14        0.00    11.57   0.802
  B8                        13.90       0.00       0.00       2.90      11.13       0.01      11.14        0.00    11.58   0.802
  B6                        13.90       0.00       0.00       2.90      11.13       0.01      11.14        0.00    11.57   0.802
  B4                        13.90       0.00       0.00       2.90      11.13       0.01      11.14        0.00    11.57   0.802
  B2                        13.90       0.00       0.00       2.90      11.13       0.01      11.14        0.00    11.57   0.802
  B29                       13.90       0.00       0.00       2.90      11.13       0.01      11.14        0.00    11.57   0.802
  B31                       13.90       0.00       0.00       2.90      11.13       0.01      11.14        0.00    11.57   0.802
  B33                       13.90       0.00       0.00       2.90      11.13       0.01      11.14        0.00    11.57   0.802
  B35.                      13.90       0.00       0.00       2.90      11.13       0.01      11.14        0.00    11.57   0.802
  B37                       13.90       0.00       0.00       2.90      11.13       0.01      11.14        0.00    11.57   0.802
  B39                       13.90       0.00       0.00       2.90      11.13       0.01      11.14        0.00    11.58   0.802
  B41                       13.90       0.00       0.00       2.90      11.13       0.01      11.14        0.00    11.57   0.802
  B43                       13.90       0.00       0.00       2.90      11.13       0.01      11.14        0.00    11.57   0.802
  B27                       13.90       0.00       0.00       2.36      11.49       0.01      11.50        0.01    23.02   0.827
  B25                       13.90       0.00       0.00       2.36      11.49       0.01      11.50        0.01    23.02   0.827
  B24                       13.90       0.00       0.00       2.36      11.49       0.01      11.50        0.01    23.02   0.827
  B67                       13.90       0.00       0.00       2.36      11.49       0.01      11.50        0.01    23.02   0.827
  B68                       13.90       0.00       0.00       2.36      11.49       0.01      11.50        0.01    23.02   0.827
  B98                       13.90       0.00       0.00       2.36      11.53       0.01      11.54        0.01    23.26   0.830
  B97                       13.90       0.00       0.00       2.36      11.39       0.01      11.39        0.01    22.32   0.820
  B46                       13.90       0.00       0.00       2.50      11.48       0.01      11.49        0.00    15.88   0.827
  B45                       13.90       0.00       0.00       2.40      11.41       0.01      11.42        0.01    26.49   0.822
  B47                       13.90       0.00       0.00       2.49      11.32       0.01      11.33        0.01    26.85   0.815
  B44                       13.90       0.00       0.00       2.90      11.08       0.01      11.09        0.00    15.33   0.798
  B122                      13.90       0.00       0.00       2.36      11.70       0.02      11.72        0.01    23.88   0.843
  B124                      13.90       0.00       0.00       2.90      11.23       0.03      11.25        0.00    11.67   0.809
  B126                      13.90       0.00       0.00       2.90      11.23       0.03      11.25        0.00    11.67   0.809
  B128                      13.90       0.00       0.00       2.90      11.23       0.03      11.25        0.00    11.67   0.809
  B130                      13.90       0.00       0.00       2.90      11.23       0.03      11.25        0.00    11.67   0.809
  B132                      13.90       0.00       0.00       2.89      11.26       0.04      11.29        0.00    11.74   0.813
  B135                      13.90       0.00       0.00       2.89      11.26       0.04      11.29        0.00    11.74   0.813
  B137                      13.90       0.00       0.00       2.89      11.26       0.04      11.29        0.00    11.74   0.813
  BBB118                    13.90       0.00       0.00       2.36      11.53       0.01      11.54        0.01    23.26   0.830
  B48                       13.90       0.00       0.00       2.36      11.49       0.01      11.50        0.01    23.02   0.827
  BB117                     13.90       0.00       0.00       2.36      11.53       0.01      11.54        0.01    23.26   0.830
  B83                       13.90       0.00       0.00       2.90      11.13       0.01      11.14        0.00    11.57   0.802
  B81                       13.90       0.00       0.00       2.90      11.13       0.01      11.14        0.00    11.57   0.802
  B79                       13.90       0.00       0.00       2.90      11.13       0.01      11.14        0.00    11.57   0.802
  B77                       13.90       0.00       0.00       2.90      11.13       0.01      11.14        0.00    11.57   0.802
  B75                       13.90       0.00       0.00       2.90      11.13       0.01      11.14        0.00    11.57   0.802
  B73                       13.90       0.00       0.00       2.90      11.13       0.01      11.14        0.00    11.57   0.802
  B71                       13.90       0.00       0.00       2.90      11.13       0.01      11.14        0.00    11.57   0.802
  B69                       13.90       0.00       0.00       2.90      11.13       0.01      11.14        0.00    11.57   0.802
  B70                       13.90       0.00       0.00       2.90      11.13       0.01      11.14        0.00    11.57   0.802
  B72                       13.90       0.00       0.00       2.90      11.13       0.01      11.14        0.00    11.57   0.802
  B74                       13.90       0.00       0.00       2.90      11.13       0.01      11.14        0.00    11.57   0.802
  B76                       13.90       0.00       0.00       2.90      11.13       0.01      11.14        0.00    11.57   0.802
  B78                       13.90       0.00       0.00       2.90      11.13       0.01      11.14        0.00    11.57   0.802
  B80                       13.90       0.00       0.00       2.90      11.13       0.01      11.14        0.00    11.57   0.802
  B82                       13.90       0.00       0.00       2.90      11.13       0.01      11.14        0.00    11.57   0.802
  B84                       13.90       0.00       0.00       2.90      11.13       0.01      11.14        0.00    11.57   0.802
  B85                       13.90       0.00       0.00       2.90      11.15       0.02      11.17        0.00    11.60   0.803
  B86                       13.90       0.00       0.00       2.90      11.15       0.02      11.17        0.00    11.60   0.803
  B88                       13.90       0.00       0.00       2.90      11.15       0.02      11.17        0.00    11.60   0.803
  B90                       13.90       0.00       0.00       2.90      11.15       0.02      11.17        0.00    11.60   0.803
  B92                       13.90       0.00       0.00       2.90      11.15       0.02      11.17        0.00    11.60   0.803
  B94                       13.90       0.00       0.00       2.90      11.15       0.02      11.17        0.00    11.60   0.803
  B96                       13.90       0.00       0.00       2.90      11.15       0.02      11.17        0.00    11.60   0.803
  B95                       13.90       0.00       0.00       2.90      11.15       0.02      11.17        0.00    11.60   0.803
  B93                       13.90       0.00       0.00       2.90      11.16       0.02      11.17        0.00    11.60   0.804
  B91                       13.90       0.00       0.00       2.90      11.15       0.02      11.17        0.00    11.60   0.803
  B89                       13.90       0.00       0.00       2.90      11.15       0.02      11.17        0.00    11.60   0.803
  B87                       13.90       0.00       0.00       2.90      11.15       0.02      11.17        0.00    11.60   0.803
  B116                      13.90       0.00       0.00       2.90      11.15       0.02      11.17        0.00    11.60   0.803
  B114                      13.90       0.00       0.00       2.90      11.15       0.02      11.17        0.00    11.60   0.803
  B112                      13.90       0.00       0.00       2.90      11.15       0.02      11.17        0.00    11.60   0.803
  B110                      13.90       0.00       0.00       2.90      11.15       0.02      11.17        0.00    11.60   0.803
  B50                       13.90       0.00       0.00       2.90      11.13       0.01      11.14        0.00    11.57   0.802
  B52                       13.90       0.00       0.00       2.90      11.13       0.01      11.14        0.00    11.57   0.802
  B54                       13.90       0.00       0.00       2.90      11.13       0.01      11.14        0.00    11.57   0.802
  B56                       13.90       0.00       0.00       2.90      11.13       0.01      11.14        0.00    11.57   0.802
  B58                       13.90       0.00       0.00       2.90      11.13       0.01      11.14        0.00    11.57   0.802
  B60                       13.90       0.00       0.00       2.90      11.13       0.01      11.14        0.00    11.57   0.802
  B106                      13.90       0.00       0.00       2.90      11.15       0.02      11.17        0.00    11.60   0.803
  B104                      13.90       0.00       0.00       2.90      11.15       0.02      11.17        0.00    11.60   0.803
  B102                      13.90       0.00       0.00       2.90      11.15       0.02      11.17        0.00    11.60   0.803
  B100                      13.90       0.00       0.00       2.36      11.53       0.01      11.54        0.01    23.26   0.830
  B66                       13.90       0.00       0.00       2.36      11.49       0.01      11.50        0.01    23.02   0.827
  B62                       13.90       0.00       0.00       2.90      11.13       0.01      11.14        0.00    11.57   0.802
  B64                       13.90       0.00       0.00       2.90      11.13       0.01      11.14        0.00    11.57   0.802
  B65                       13.90       0.00       0.00       2.36      11.49       0.01      11.50        0.01    23.02   0.827
  B63                       13.90       0.00       0.00       2.90      11.13       0.01      11.14        0.00    11.57   0.802
  B61                       13.90       0.00       0.00       2.90      11.13       0.01      11.14        0.00    11.57   0.802
  B59                       13.90       0.00       0.00       2.90      11.13       0.01      11.14        0.00    11.57   0.802
  B57                       13.90       0.00       0.00       2.90      11.13       0.01      11.14        0.00    11.57   0.802
  B55                       13.90       0.00       0.00       2.90      11.13       0.01      11.14        0.00    11.57   0.802
  B53                       13.90       0.00       0.00       2.90      11.13       0.01      11.14        0.00    11.57   0.802
  B51                       13.90       0.00       0.00       2.90      11.13       0.01      11.14        0.00    11.57   0.802
  B49                       13.90       0.00       0.00       2.90      11.13       0.01      11.14        0.00    11.57   0.802
  B138                      13.90       0.00       0.00       2.19      11.91       0.02      11.93        0.01    27.26   0.858
  B188                      13.90       0.00       0.00       2.48      11.59       0.02      11.61        0.01    25.91   0.835
  B189                      13.90       0.00       0.00       2.90      11.25       0.03      11.29        0.00    11.73   0.812
  B190                      13.90       0.00       0.00       2.90      11.25       0.03      11.29        0.00    11.73   0.812
  B191                      13.90       0.00       0.00       2.90      11.25       0.03      11.29        0.00    11.73   0.812
  B192                      13.90       0.00       0.00       2.90      11.25       0.03      11.29        0.00    11.73   0.812
  B193                      13.90       0.00       0.00       2.90      11.25       0.03      11.29        0.00    11.73   0.812
  B194                      13.90       0.00       0.00       2.36      11.72       0.02      11.74        0.01    23.93   0.845
  B195                      13.90       0.00       0.00       2.36      11.50       0.01      11.50        0.01    23.06   0.828
  B196                      13.90       0.00       0.00       2.90      11.13       0.01      11.15        0.00    11.58   0.802
  B197                      13.90       0.00       0.00       2.90      11.13       0.01      11.15        0.00    11.58   0.802
  B198                      13.90       0.00       0.00       2.90      11.13       0.01      11.15        0.00    11.58   0.802
  B199                      13.90       0.00       0.00       2.90      11.13       0.01      11.15        0.00    11.58   0.802
  B204                      13.90       0.00       0.00       2.36      11.50       0.01      11.50        0.01    23.06   0.828
  B203                      13.90       0.00       0.00       2.90      11.13       0.01      11.15        0.00    11.58   0.802
  B202                      13.90       0.00       0.00       2.90      11.13       0.01      11.15        0.00    11.58   0.802
  B200                      13.90       0.00       0.00       2.90      11.13       0.01      11.15        0.00    11.58   0.802
  B201                      13.90       0.00       0.00       2.90      11.13       0.01      11.15        0.00    11.58   0.802
  B176                      13.90       0.00       0.00       2.18      11.90       0.02      11.91        0.01    26.69   0.857
  B177                      13.90       0.00       0.00       2.90      11.25       0.03      11.28        0.00    11.71   0.812
  B178                      13.90       0.00       0.00       2.90      11.25       0.03      11.29        0.00    11.73   0.812
  B179                      13.90       0.00       0.00       2.90      11.25       0.03      11.29        0.00    11.73   0.812
  B180                      13.90       0.00       0.00       2.90      11.25       0.03      11.29        0.00    11.73   0.812
  B181                      13.90       0.00       0.00       2.90      11.25       0.03      11.29        0.00    11.73   0.812
  B182                      13.90       0.00       0.00       2.90      11.25       0.03      11.29        0.00    11.73   0.812
  B183                      13.90       0.00       0.00       2.90      11.13       0.01      11.15        0.00    11.58   0.802
  B184                      13.90       0.00       0.00       2.90      11.13       0.01      11.15        0.00    11.58   0.802
  B185                      13.90       0.00       0.00       2.90      11.13       0.01      11.15        0.00    11.58   0.802
  B186                      13.90       0.00       0.00       2.90      11.13       0.01      11.15        0.00    11.58   0.802
  B187                      13.90       0.00       0.00       2.36      11.50       0.01      11.50        0.01    23.05   0.828
  B165                      13.90       0.00       0.00       2.36      11.64       0.01      11.66        0.01    23.74   0.839
  BB166                     13.90       0.00       0.00       2.90      11.21       0.02      11.24        0.00    11.67   0.809
  BB167                     13.90       0.00       0.00       2.90      11.21       0.02      11.24        0.00    11.67   0.809
  B168                      13.90       0.00       0.00       2.89      11.26       0.04      11.30        0.00    11.75   0.813
  B169                      13.90       0.00       0.00       2.89      11.26       0.04      11.29        0.00    11.73   0.812
  B170                      13.90       0.00       0.00       2.89      11.26       0.04      11.29        0.00    11.73   0.812
  B171                      13.90       0.00       0.00       2.89      11.26       0.04      11.29        0.00    11.73   0.812
  B172                      13.90       0.00       0.00       2.89      11.26       0.04      11.29        0.00    11.73   0.812
  B173                      13.90       0.00       0.00       2.89      11.26       0.05      11.30        0.00    11.76   0.813
  B174                      13.90       0.00       0.00       2.89      11.26       0.05      11.30        0.00    11.76   0.813
  B175                      13.90       0.00       0.00       2.37      11.76       0.02      11.78        0.01    24.61   0.847
  B150                      13.90       0.00       0.00       2.01      12.12       0.02      12.15        0.01    25.44   0.874
  B151                      13.90       0.00       0.00       2.71      11.44       0.04      11.48        0.00    13.95   0.826
  B152                      13.90       0.00       0.00       2.76      11.40       0.04      11.44        0.00    13.90   0.823
  B153                      13.90       0.00       0.00       2.80      11.35       0.04      11.39        0.00    12.82   0.820
  B154                      13.90       0.00       0.00       2.85      11.30       0.04      11.33        0.00    13.31   0.815
  B155                      13.90       0.00       0.00       2.85      11.29       0.03      11.33        0.00    13.86   0.815
  B157                      13.90       0.00       0.00       2.87      11.29       0.04      11.32        0.00    12.08   0.815
  B158                      13.90       0.00       0.00       2.89      11.26       0.04      11.29        0.00    12.21   0.812
  B159                      13.90       0.00       0.00       2.94      11.16       0.02      11.18        0.00    12.89   0.804
  B160                      13.90       0.00       0.00       2.89      11.26       0.04      11.29        0.00    11.73   0.812
  B161                      13.90       0.00       0.00       3.01      11.07       0.02      11.09        0.00    14.91   0.798
  B162                      13.90       0.00       0.00       2.90      11.21       0.02      11.24        0.00    11.66   0.808
  B163                      13.90       0.00       0.00       2.54      11.44       0.01      11.45        0.01    27.10   0.824
  B164                      13.90       0.00       0.00       2.28      11.65       0.01      11.65        0.01    34.65   0.838
  B210                      13.90       0.00       0.00       8.47       8.89       0.57       5.01        0.05   153.22   0.361
  B205                      13.90       0.00       0.00       2.33      11.53       0.01      11.53        0.01    24.11   0.830
  B206                      13.90       0.00       0.00       2.94      11.08       0.01      11.09        0.00    12.62   0.798
  B207                      13.90       0.00       0.00       2.99      11.02       0.01      11.03        0.00    13.64   0.794
  B208                      13.90       0.00       0.00       3.03      10.96       0.01      10.97        0.00    15.03   0.789
  B209                      13.90       0.00       0.00       3.06      10.90       0.01      10.91        0.01    16.86   0.785
  B211                      13.90       0.00       0.00       2.43      11.39       0.01      11.40        0.01    25.37   0.820
  B212                      13.90       0.00       0.00       2.98      11.11       0.02      11.13        0.00    12.04   0.801
  B213                      13.90       0.00       0.00       3.03      11.05       0.02      11.07        0.00    13.54   0.797
  B214                      13.90       0.00       0.00       2.82      11.15       0.01      11.16        0.01    24.51   0.803
  B215                      13.90       0.00       0.00       3.05      11.02       0.02      11.03        0.01    19.07   0.794
  B216                      13.90       0.00       0.00       2.80      11.20       0.01      11.22        0.01    27.62   0.807
  B217                      13.90       0.00       0.00       2.90      11.18       0.02      11.20        0.00    11.63   0.806
  B218                      13.90       0.00       0.00       2.90      11.18       0.02      11.20        0.00    11.63   0.806
  B219                      13.90       0.00       0.00       2.90      11.18       0.02      11.20        0.00    11.63   0.806
  B220                      13.90       0.00       0.00       3.03      11.02       0.02      11.04        0.00    14.24   0.794
  B221                      13.90       0.00       0.00       2.55      11.46       0.01      11.48        0.01    33.07   0.826
  B224                      13.90       0.00       0.00       2.90      11.25       0.03      11.28        0.00    11.72   0.811
  B223                      13.90       0.00       0.00       2.90      11.25       0.03      11.28        0.00    11.72   0.811
  B222                      13.90       0.00       0.00       2.18      11.84       0.01      11.86        0.01    20.72   0.853
  
  
  ******************
  Node Depth Summary
  ******************
  
  ---------------------------------------------------------------------------------
                                 Average  Maximum  Maximum  Time of Max    Reported
                                   Depth    Depth      HGL   Occurrence   Max Depth
  Node                 Type       Meters   Meters   Meters  days hr:min      Meters
  ---------------------------------------------------------------------------------
  P1                   JUNCTION     0.06     1.00  1048.20     0  00:08        0.56
  P2                   JUNCTION     0.09     1.01  1048.03     0  00:08        0.73
  P3                   JUNCTION     0.11     1.02  1047.71     0  00:07        0.97
  P4                   JUNCTION     0.16     1.16  1047.68     0  00:09        1.14
  P5                   JUNCTION     0.16     1.23  1047.41     0  00:09        1.20
  P6                   JUNCTION     0.22     1.40  1047.41     0  00:09        1.37
  P7                   JUNCTION     0.22     1.36  1047.14     0  00:09        1.32
  P8                   JUNCTION     0.14     1.00  1046.55     0  00:06        0.88
  P9                   JUNCTION     0.20     1.05  1046.43     0  00:09        1.04
  P10                  JUNCTION     0.04     0.22  1045.16     0  00:08        0.17
  P11                  JUNCTION     0.11     0.37  1045.14     0  00:09        0.37
  P12                  JUNCTION     0.06     0.29  1044.80     0  00:07        0.27
  P13                  JUNCTION     0.13     0.45  1044.78     0  00:09        0.45
  P17                  JUNCTION     0.03     0.13  1046.28     0  00:08        0.13
  P18                  JUNCTION     0.06     0.22  1046.21     0  00:09        0.22
  P19                  JUNCTION     0.03     0.12  1046.07     0  00:08        0.09
  P20                  JUNCTION     0.10     0.85  1046.34     0  00:08        0.62
  P23                  JUNCTION     0.02     0.26  1045.93     0  00:08        0.23
  P24                  JUNCTION     0.11     0.72  1045.98     0  00:09        0.65
  P25                  JUNCTION     0.03     0.21  1044.93     0  00:09        0.12
  P26                  JUNCTION     0.09     0.33  1044.89     0  00:08        0.32
  P27                  JUNCTION     0.07     0.31  1044.52     0  00:09        0.31
  P28                  JUNCTION     0.10     0.35  1044.52     0  00:09        0.35
  P29                  JUNCTION     0.03     0.14  1044.16     0  00:09        0.11
  P30                  JUNCTION     0.09     0.32  1044.17     0  00:09        0.32
  P31                  JUNCTION     0.40     0.83  1044.22     0  00:05        0.53
  P32                  JUNCTION     0.13     0.42  1043.64     0  00:09        0.42
  P33                  JUNCTION     0.03     0.19  1042.62     0  00:09        0.15
  P34                  JUNCTION     0.10     0.32  1042.59     0  00:09        0.32
  P35                  JUNCTION     0.02     0.14  1040.82     0  00:09        0.11
  P36                  JUNCTION     0.09     0.28  1040.80     0  00:09        0.28
  P37                  JUNCTION     0.03     0.13  1037.57     0  00:10        0.11
  P38                  JUNCTION     0.09     0.30  1037.58     0  00:09        0.30
  P39                  JUNCTION     0.02     0.07  1048.24     0  00:09        0.07
  P40                  JUNCTION     0.04     0.13  1048.13     0  00:09        0.13
  P41                  JUNCTION     0.05     1.08  1048.57     0  00:08        0.57
  P42                  JUNCTION     0.14     1.15  1048.07     0  00:09        1.14
  P43                  JUNCTION     0.07     1.00  1047.92     0  00:08        0.84
  P44                  JUNCTION     0.12     1.02  1047.77     0  00:09        1.01
  P45                  JUNCTION     0.08     1.01  1047.30     0  00:08        0.91
  P46                  JUNCTION     0.13     1.09  1047.21     0  00:09        1.08
  P47                  JUNCTION     0.08     1.00  1046.34     0  00:07        0.87
  P48                  JUNCTION     0.13     1.04  1046.20     0  00:09        1.03
  P49                  JUNCTION     0.08     1.06  1045.57     0  00:07        0.81
  P50                  JUNCTION     0.14     1.13  1045.46     0  00:07        0.98
  P51                  JUNCTION     0.02     0.10  1042.80     0  00:09        0.09
  P52                  JUNCTION     0.08     0.29  1042.83     0  00:09        0.29
  P53                  JUNCTION     0.03     0.14  1038.71     0  00:06        0.13
  P54                  JUNCTION     0.08     0.28  1038.68     0  00:09        0.28
  P55                  JUNCTION     0.11     0.40  1037.66     0  00:09        0.40
  P57                  JUNCTION     0.10     0.34  1037.19     0  00:09        0.34
  P58                  JUNCTION     0.16     0.56  1036.23     0  00:09        0.56
  P22                  JUNCTION     0.04     0.62  1046.15     0  00:09        0.40
  P21                  JUNCTION     0.03     0.24  1045.94     0  00:09        0.20
  P16                  JUNCTION     0.07     0.22  1044.25     0  00:09        0.22
  P14                  JUNCTION     0.16     0.51  1044.66     0  00:09        0.51
  P84                  JUNCTION     0.01     0.04  1044.32     0  00:08        0.03
  P85                  JUNCTION     0.02     0.06  1044.31     0  00:09        0.06
  P86                  JUNCTION     0.03     0.10  1040.61     0  00:09        0.10
  P87                  JUNCTION     0.05     0.19  1037.25     0  00:09        0.19
  P88                  JUNCTION     0.05     0.17  1036.83     0  00:09        0.17
  P89                  JUNCTION     0.15     0.54  1036.60     0  00:09        0.54
  P59                  JUNCTION     0.02     0.08  1047.76     0  00:09        0.08
  P61                  JUNCTION     0.06     0.20  1046.79     0  00:08        0.20
  P62                  JUNCTION     0.07     0.27  1046.49     0  00:08        0.26
  P63                  JUNCTION     0.08     0.28  1046.29     0  00:09        0.28
  P64                  JUNCTION     0.10     0.33  1045.81     0  00:09        0.32
  P65                  JUNCTION     0.10     0.34  1045.85     0  00:09        0.34
  P66                  JUNCTION     0.09     0.30  1045.62     0  00:09        0.30
  P67                  JUNCTION     0.07     0.24  1044.62     0  00:09        0.24
  P68                  JUNCTION     0.03     0.11  1044.69     0  00:07        0.11
  P69                  JUNCTION     0.07     0.25  1041.99     0  00:09        0.24
  P70                  JUNCTION     0.02     0.10  1042.04     0  00:06        0.10
  P71                  JUNCTION     0.08     0.27  1038.54     0  00:09        0.27
  P72                  JUNCTION     0.03     0.12  1038.59     0  00:07        0.11
  P73                  JUNCTION     0.09     0.31  1037.52     0  00:09        0.31
  P74                  JUNCTION     0.12     0.42  1037.22     0  00:09        0.42
  P75                  JUNCTION     0.12     0.43  1037.00     0  00:09        0.42
  P76                  JUNCTION     0.13     0.49  1036.71     0  00:09        0.48
  P77                  JUNCTION     0.04     0.31  1036.73     0  00:09        0.25
  P78                  JUNCTION     0.06     0.22  1039.01     0  00:09        0.22
  P79                  JUNCTION     0.04     0.15  1038.74     0  00:09        0.15
  P80                  JUNCTION     0.04     0.14  1043.34     0  00:09        0.14
  P81                  JUNCTION     0.04     0.15  1043.37     0  00:09        0.15
  P82                  JUNCTION     0.03     0.11  1046.29     0  00:08        0.11
  P83                  JUNCTION     0.05     0.17  1046.36     0  00:08        0.16
  P60                  JUNCTION     0.05     0.17  1047.31     0  00:09        0.17
  P62A                 JUNCTION     0.06     0.26  1046.50     0  00:09        0.25
  P61A                 JUNCTION     0.04     0.20  1046.80     0  00:09        0.19
  P90                  JUNCTION     0.03     0.10  1047.23     0  00:09        0.10
  P91                  JUNCTION     0.03     0.10  1047.03     0  00:09        0.10
  P92                  JUNCTION     0.03     0.10  1046.20     0  00:09        0.10
  P93                  JUNCTION     0.05     0.19  1046.08     0  00:09        0.19
  P94                  JUNCTION     0.02     0.08  1045.82     0  00:09        0.08
  P95                  JUNCTION     0.05     0.20  1045.74     0  00:09        0.20
  P96                  JUNCTION     0.03     0.10  1045.48     0  00:07        0.10
  P97                  JUNCTION     0.05     0.20  1045.38     0  00:09        0.20
  E1                   OUTFALL      0.16     0.56  1035.56     0  00:09        0.55
  E32                  OUTFALL      0.15     0.54  1036.50     0  00:09        0.54
  E33                  OUTFALL      0.05     0.20  1044.58     0  00:09        0.20
  
  
  *******************
  Node Inflow Summary
  *******************
  
  -------------------------------------------------------------------------------------------------
                                  Maximum  Maximum                  Lateral       Total        Flow
                                  Lateral    Total  Time of Max      Inflow      Inflow     Balance
                                   Inflow   Inflow   Occurrence      Volume      Volume       Error
  Node                 Type           LPS      LPS  days hr:min    10^6 ltr    10^6 ltr     Percent
  -------------------------------------------------------------------------------------------------
  P1                   JUNCTION     46.30    46.30     0  00:09       0.014       0.014      -0.079
  P2                   JUNCTION     46.31   120.01     0  00:08       0.014      0.0281      -0.053
  P3                   JUNCTION     46.29   117.32     0  00:07       0.014      0.0141      -0.573
  P4                   JUNCTION     46.29   206.95     0  00:08       0.014      0.0563       0.374
  P5                   JUNCTION     57.74   118.62     0  00:06      0.0176      0.0177      -0.241
  P6                   JUNCTION     46.30   267.77     0  00:06       0.014      0.0879       0.077
  P7                   JUNCTION     46.03   281.07     0  00:09      0.0142       0.102       0.141
  P8                   JUNCTION     57.74    90.44     0  00:06      0.0176      0.0177       0.235
  P9                   JUNCTION     34.72   359.11     0  00:09      0.0105        0.13       0.103
  P10                  JUNCTION     34.73    34.73     0  00:09      0.0105      0.0106      -0.018
  P11                  JUNCTION     34.72   421.84     0  00:08      0.0105       0.151       0.083
  P12                  JUNCTION     49.64    49.64     0  00:09      0.0152      0.0152      -0.022
  P13                  JUNCTION     42.78   501.60     0  00:08       0.013       0.179       0.064
  P17                  JUNCTION     57.87    57.87     0  00:09      0.0175      0.0175       0.014
  P18                  JUNCTION     57.87   115.96     0  00:09      0.0175      0.0351      -0.003
  P19                  JUNCTION     57.74    57.74     0  00:09      0.0176      0.0176       0.002
  P20                  JUNCTION     34.72   214.47     0  00:08      0.0105      0.0632       0.168
  P23                  JUNCTION     23.02    23.02     0  00:09      0.0071      0.0071       0.032
  P24                  JUNCTION     23.02   270.15     0  00:09      0.0071      0.0845       0.271
  P25                  JUNCTION     34.72    34.72     0  00:09      0.0105      0.0106       0.051
  P26                  JUNCTION     34.72   349.44     0  00:08      0.0105       0.105       0.059
  P27                  JUNCTION     34.72    34.72     0  00:09      0.0105      0.0105      -0.018
  P28                  JUNCTION     34.72   402.78     0  00:09      0.0105       0.126       0.151
  P29                  JUNCTION     46.16    46.16     0  00:09      0.0141      0.0141      -0.005
  P30                  JUNCTION     49.99   486.84     0  00:09      0.0154       0.156       0.080
  P31                  JUNCTION     23.91    23.91     0  00:09     0.00725     0.00725       6.678
  P32                  JUNCTION      0.00  1006.34     0  00:09           0       0.341       0.051
  P33                  JUNCTION     35.21    35.21     0  00:09      0.0107       0.011      -0.036
  P34                  JUNCTION      0.00  1051.08     0  00:09           0       0.351       0.059
  P35                  JUNCTION     23.47    23.47     0  00:09     0.00711     0.00727      -0.070
  P36                  JUNCTION      0.00  1061.68     0  00:09           0       0.358       0.066
  P37                  JUNCTION     49.24    49.24     0  00:09      0.0149       0.015      -0.063
  P38                  JUNCTION      0.00  1100.55     0  00:09           0       0.373       0.007
  P39                  JUNCTION     23.20    23.20     0  00:09     0.00703     0.00703       0.021
  P40                  JUNCTION     46.39    69.58     0  00:09      0.0141      0.0211      -0.267
  P41                  JUNCTION     57.11    58.16     0  00:08      0.0176      0.0176      -0.239
  P42                  JUNCTION     58.05   213.58     0  00:09      0.0177      0.0565       0.506
  P43                  JUNCTION     34.86    76.50     0  00:08      0.0106      0.0107      -0.193
  P44                  JUNCTION     34.86   259.44     0  00:08      0.0106      0.0776       0.167
  P45                  JUNCTION     46.39    64.90     0  00:08      0.0141      0.0141      -0.219
  P46                  JUNCTION     46.39   335.87     0  00:07      0.0141       0.106       0.087
  P47                  JUNCTION     58.05    58.05     0  00:09      0.0177      0.0177      -0.153
  P48                  JUNCTION     58.05   416.41     0  00:09      0.0177       0.141       0.097
  P49                  JUNCTION     23.86    38.44     0  00:07     0.00724      0.0073      -0.021
  P50                  JUNCTION     23.88   454.23     0  00:09     0.00724       0.155       0.051
  P51                  JUNCTION     35.00    35.00     0  00:09      0.0106      0.0106      -0.072
  P52                  JUNCTION     35.00   524.19     0  00:09      0.0106       0.176       0.095
  P53                  JUNCTION     74.15    74.15     0  00:09      0.0225      0.0225      -0.047
  P54                  JUNCTION     46.89   644.55     0  00:09      0.0142       0.213       0.024
  P55                  JUNCTION     24.95   668.85     0  00:09     0.00758        0.22       0.026
  P57                  JUNCTION      0.00   667.99     0  00:09           0        0.22       0.280
  P58                  JUNCTION      0.00  1763.86     0  00:09           0       0.592       0.004
  P22                  JUNCTION      0.00    38.97     0  00:09           0     0.00714      -0.137
  P21                  JUNCTION     23.02    23.02     0  00:09      0.0071      0.0071       0.072
  P16                  JUNCTION      0.00   500.56     0  00:09           0       0.179       0.107
  P14                  JUNCTION      0.00   500.52     0  00:09           0       0.179       0.139
  P84                  JUNCTION      0.00     0.49     0  00:05           0     3.8e-05       0.992
  P85                  JUNCTION     27.10    27.18     0  00:09     0.00823     0.00827       0.131
  P86                  JUNCTION     53.74    80.86     0  00:09      0.0163      0.0245      -0.090
  P87                  JUNCTION     26.77   107.37     0  00:09     0.00811      0.0326       0.117
  P88                  JUNCTION      0.00   106.90     0  00:09           0      0.0326       0.149
  P89                  JUNCTION      0.00  1064.39     0  00:09           0       0.337       0.024
  P59                  JUNCTION     50.09    50.09     0  00:09      0.0152      0.0152      -0.015
  P61                  JUNCTION     31.89   108.97     0  00:08     0.00969      0.0332       0.037
  P62                  JUNCTION     50.37   160.47     0  00:08      0.0154      0.0488       0.091
  P63                  JUNCTION     23.06   178.34     0  00:09     0.00711      0.0552       0.260
  P64                  JUNCTION     34.75   363.74     0  00:09      0.0105       0.113       0.081
  P65                  JUNCTION    153.22   153.22     0  00:09      0.0478      0.0478       0.044
  P66                  JUNCTION     23.17   383.35     0  00:09     0.00702        0.12       0.151
  P67                  JUNCTION     57.81   493.23     0  00:09      0.0176       0.155       0.121
  P68                  JUNCTION     57.80    57.80     0  00:09      0.0176      0.0176      -0.008
  P69                  JUNCTION     35.66   570.15     0  00:09      0.0108        0.18       0.110
  P70                  JUNCTION     46.77    46.77     0  00:09      0.0142      0.0142      -0.064
  P71                  JUNCTION     46.91   673.86     0  00:09      0.0142       0.213       0.043
  P72                  JUNCTION     61.86    61.86     0  00:09      0.0188      0.0188      -0.043
  P73                  JUNCTION     25.91   696.92     0  00:09     0.00786       0.221       0.017
  P74                  JUNCTION      0.00   697.93     0  00:09           0       0.221       0.004
  P75                  JUNCTION      0.00   699.23     0  00:09           0       0.221       0.108
  P76                  JUNCTION      0.00   741.18     0  00:09           0       0.228       0.159
  P77                  JUNCTION     24.61    26.09     0  00:08     0.00748     0.00777      -0.143
  P78                  JUNCTION     35.26   212.49     0  00:09      0.0107      0.0646       0.056
  P79                  JUNCTION     39.34   251.32     0  00:09      0.0119      0.0765      -0.054
  P80                  JUNCTION     46.96   177.81     0  00:08      0.0142      0.0539       0.024
  P81                  JUNCTION     37.25    37.25     0  00:09      0.0113      0.0113      -0.019
  P82                  JUNCTION     47.07    98.80     0  00:08      0.0143      0.0284       0.048
  P83                  JUNCTION     46.30    46.30     0  00:09      0.0141      0.0141       0.069
  P60                  JUNCTION     25.37    75.45     0  00:09     0.00787      0.0231       0.126
  P62A                 JUNCTION      0.00     6.81     0  00:06           0    0.000647       0.402
  P61A                 JUNCTION      0.00     4.75     0  00:05           0    0.000433       0.668
  P90                  JUNCTION     46.69    46.69     0  00:09      0.0142      0.0142       0.028
  P91                  JUNCTION      0.00    46.67     0  00:09           0      0.0142      -0.068
  P92                  JUNCTION     49.13    49.13     0  00:09      0.0149      0.0149      -0.008
  P93                  JUNCTION      0.00    95.70     0  00:09           0      0.0291       0.100
  P94                  JUNCTION     33.07    33.07     0  00:09        0.01        0.01      -0.006
  P95                  JUNCTION      0.00   128.36     0  00:09           0      0.0391       0.209
  P96                  JUNCTION     44.16    44.16     0  00:09      0.0134      0.0134      -0.029
  P97                  JUNCTION      0.00   172.11     0  00:09           0      0.0524       0.058
  E1                   OUTFALL       0.00  1769.61     0  00:09           0       0.592       0.000
  E32                  OUTFALL       0.00  1061.96     0  00:09           0       0.337       0.000
  E33                  OUTFALL       0.00   171.86     0  00:09           0      0.0523       0.000
  
  
  **********************
  Node Surcharge Summary
  **********************
  
  Surcharging occurs when water rises above the top of the highest conduit.
  ---------------------------------------------------------------------
                                               Max. Height   Min. Depth
                                   Hours       Above Crown    Below Rim
  Node                 Type      Surcharged         Meters       Meters
  ---------------------------------------------------------------------
  P1                   JUNCTION        0.02          0.603        0.000
  P2                   JUNCTION        0.03          0.609        0.000
  P3                   JUNCTION        0.05          0.618        0.000
  P4                   JUNCTION        0.06          0.761        0.000
  P5                   JUNCTION        0.06          0.828        0.000
  P6                   JUNCTION        0.07          0.996        0.000
  P7                   JUNCTION        0.08          0.956        0.000
  P8                   JUNCTION        0.06          0.601        0.000
  P9                   JUNCTION        0.08          0.655        0.000
  P20                  JUNCTION        0.02          0.452        0.148
  P24                  JUNCTION        0.04          0.315        0.490
  P31                  JUNCTION        0.40          0.426        0.974
  P41                  JUNCTION        0.02          0.675        0.000
  P42                  JUNCTION        0.04          0.752        0.000
  P43                  JUNCTION        0.02          0.604        0.000
  P44                  JUNCTION        0.03          0.623        0.000
  P45                  JUNCTION        0.03          0.609        0.000
  P46                  JUNCTION        0.03          0.692        0.000
  P47                  JUNCTION        0.03          0.604        0.000
  P48                  JUNCTION        0.03          0.640        0.000
  P49                  JUNCTION        0.03          0.661        0.299
  P50                  JUNCTION        0.05          0.727        0.233
  P22                  JUNCTION        0.01          0.217        0.258
  
  
  *********************
  Node Flooding Summary
  *********************
  
  Flooding refers to all water that overflows a node, whether it ponds or not.
  --------------------------------------------------------------------------
                                                             Total   Maximum
                                 Maximum   Time of Max       Flood    Ponded
                        Hours       Rate    Occurrence      Volume     Depth
  Node                 Flooded       LPS   days hr:min    10^6 ltr    Meters
  --------------------------------------------------------------------------
  P1                      0.01     27.08      0  00:08       0.000     0.003
  P2                      0.01     27.72      0  00:08       0.000     0.009
  P3                      0.01     95.02      0  00:07       0.000     0.038
  P4                      0.04     68.00      0  00:07       0.002     0.181
  P5                      0.04     95.39      0  00:06       0.000     0.228
  P6                      0.06     81.42      0  00:06       0.003     0.396
  P7                      0.06     29.25      0  00:06       0.002     0.356
  P8                      0.01     19.78      0  00:06       0.000     0.001
  P9                      0.03     66.59      0  00:06       0.001     0.055
  P41                     0.01     41.67      0  00:08       0.000     0.000
  P42                     0.02     40.64      0  00:08       0.001     0.077
  P43                     0.01     42.32      0  00:08       0.000     0.004
  P44                     0.02     50.55      0  00:08       0.000     0.023
  P45                     0.01     22.14      0  00:08       0.000     0.009
  P46                     0.02     37.61      0  00:08       0.001     0.092
  P47                     0.01     14.81      0  00:07       0.000     0.004
  P48                     0.02     23.93      0  00:07       0.000     0.040
  
  
  ***********************
  Outfall Loading Summary
  ***********************
  
  -----------------------------------------------------------
                         Flow       Avg       Max       Total
                         Freq      Flow      Flow      Volume
  Outfall Node           Pcnt       LPS       LPS    10^6 ltr
  -----------------------------------------------------------
  E1                    85.29    399.08   1769.61       0.592
  E32                   85.61    225.87   1061.96       0.337
  E33                   85.55     35.15    171.86       0.052
  -----------------------------------------------------------
  System                85.48    660.10   2999.52       0.981
  
  
  
  ********************
  Link Flow Summary
  ********************
  
  -----------------------------------------------------------------------------
                                 Maximum  Time of Max   Maximum    Max/    Max/
                                  |Flow|   Occurrence   |Veloc|    Full    Full
  Link                 Type          LPS  days hr:min     m/sec    Flow   Depth
  -----------------------------------------------------------------------------
  G1                   CONDUIT     74.26     0  00:08      1.17    0.23    1.00
  G2                   CONDUIT    115.61     0  00:08      1.18    0.55    1.00
  G3                   CONDUIT     95.96     0  00:07      1.32    0.33    1.00
  G4                   CONDUIT    190.95     0  00:10      1.62    0.91    1.00
  G5                   CONDUIT    105.85     0  00:06      1.30    0.32    1.00
  G6                   CONDUIT    236.07     0  00:09      1.88    1.10    1.00
  G7                   CONDUIT    292.16     0  00:10      2.32    1.41    1.00
  G8                   CONDUIT     69.51     0  00:06      1.55    0.21    1.00
  G38                  CONDUIT     23.19     0  00:09      0.93    0.07    0.25
  G39                  CONDUIT     69.43     0  00:09      1.06    0.23    0.66
  G40                  CONDUIT    138.69     0  00:09      1.84    0.23    1.00
  G41                  CONDUIT    183.29     0  00:08      1.54    1.43    1.00
  G42                  CONDUIT     62.68     0  00:09      1.25    0.19    1.00
  G43                  CONDUIT    241.33     0  00:08      2.05    1.02    1.00
  G44                  CONDUIT     77.52     0  00:09      1.43    0.24    1.00
  G45                  CONDUIT    335.10     0  00:09      2.71    1.14    1.00
  G46                  CONDUIT     69.45     0  00:09      1.34    0.21    1.00
  G47                  CONDUIT    414.34     0  00:09      3.37    1.05    1.00
  G48                  CONDUIT     31.00     0  00:07      1.06    0.09    1.00
  G49                  CONDUIT    454.24     0  00:09      4.14    1.13    0.86
  G50                  CONDUIT     34.99     0  00:09      1.48    0.11    0.47
  G51                  CONDUIT    523.70     0  00:09      5.45    0.87    0.72
  G52                  CONDUIT     74.12     0  00:09      1.73    0.23    0.52
  G53                  CONDUIT    643.99     0  00:09      3.87    0.45    0.57
  G54                  CONDUIT    667.99     0  00:09      3.66    0.78    0.62
  G56                  CONDUIT    667.31     0  00:09      3.86    0.61    0.60
  G16                  CONDUIT     58.12     0  00:09      1.22    0.18    0.43
  G17                  CONDUIT    116.33     0  00:08      1.30    0.56    0.78
  G18                  CONDUIT     69.21     0  00:08      1.76    0.13    0.65
  G19                  CONDUIT    214.51     0  00:08      1.79    1.02    1.00
  G20                  CONDUIT     38.97     0  00:09      1.45    0.12    0.75
  G21                  CONDUIT     57.74     0  00:09      0.81    0.17    1.00
  G22                  CONDUIT     33.40     0  00:08      1.27    0.07    0.83
  G23                  CONDUIT    266.05     0  00:09      2.16    1.27    0.95
  G24                  CONDUIT     53.72     0  00:08      1.06    0.18    0.66
  G25                  CONDUIT    335.00     0  00:09      2.08    0.55    0.56
  G26                  CONDUIT     34.65     0  00:08      0.97    0.21    0.82
  G27                  CONDUIT    395.93     0  00:09      2.43    0.65    0.56
  G28                  CONDUIT     45.64     0  00:09      1.30    0.14    0.57
  G9                   CONDUIT    345.42     0  00:09      2.76    1.66    1.00
  G10                  CONDUIT     45.36     0  00:08      1.11    0.14    0.73
  G11                  CONDUIT    411.69     0  00:09      2.07    0.67    0.68
  G12                  CONDUIT     56.22     0  00:07      1.21    0.17    0.86
  G13                  CONDUIT    500.52     0  00:09      2.08    0.79    0.80
  G14                  CONDUIT    500.56     0  00:09      2.82    1.57    0.61
  G29                  CONDUIT    485.84     0  00:09      3.14    0.57    0.54
  G15                  CONDUIT    500.46     0  00:09      3.33    0.29    0.53
  G30                  CONDUIT     23.95     0  00:08      0.32    0.05    0.57
  G31                  CONDUIT   1008.29     0  00:09      4.47    0.53    0.46
  G33                  CONDUIT   1045.63     0  00:09      6.06    0.33    0.38
  G34                  CONDUIT     30.18     0  00:08      1.65    0.09    0.52
  G35                  CONDUIT   1060.20     0  00:09      6.41    0.27    0.36
  G36                  CONDUIT     49.23     0  00:09      1.98    0.15    0.52
  G37                  CONDUIT   1099.97     0  00:09      6.27    0.30    0.39
  G32                  CONDUIT     47.45     0  00:08      2.02    0.15    0.63
  G57                  CONDUIT   1769.61     0  00:09      4.71    0.84    0.70
  G58                  CONDUIT     50.07     0  00:09      1.97    0.09    0.31
  G59                  CONDUIT     74.85     0  00:09      1.53    0.36    0.41
  G61                  CONDUIT    106.35     0  00:08      1.40    0.50    0.58
  G63                  CONDUIT    155.29     0  00:09      1.72    0.76    0.68
  G64                  CONDUIT    177.30     0  00:09      1.77    0.83    0.75
  G66                  CONDUIT    153.11     0  00:09      1.38    1.14    0.83
  G65                  CONDUIT    361.23     0  00:09      2.44    0.57    0.52
  G67                  CONDUIT    382.52     0  00:09      3.12    0.48    0.45
  G68                  CONDUIT     57.77     0  00:09      1.59    0.16    0.44
  G69                  CONDUIT    491.38     0  00:09      4.53    0.35    0.41
  G70                  CONDUIT     46.75     0  00:09      1.79    0.13    0.43
  G71                  CONDUIT    567.49     0  00:09      4.93    0.35    0.43
  G72                  CONDUIT     61.84     0  00:09      1.66    0.18    0.48
  G73                  CONDUIT    671.89     0  00:09      5.00    0.41    0.48
  G74                  CONDUIT    697.93     0  00:09      3.88    0.50    0.61
  G75                  CONDUIT    699.23     0  00:09      2.60    0.53    0.53
  G76                  CONDUIT    699.72     0  00:09      2.40    0.53    0.57
  G78                  CONDUIT    730.77     0  00:09      2.27    0.56    0.64
  G77                  CONDUIT     48.99     0  00:08      1.42    0.05    0.66
  G60                  CONDUIT      4.75     0  00:05      0.30    0.05    0.50
  G62                  CONDUIT      6.81     0  00:06      0.29    0.06    0.65
  G79                  CONDUIT     51.91     0  00:08      1.36    0.47    0.35
  G80                  CONDUIT     93.82     0  00:08      2.77    0.17    0.31
  G81                  CONDUIT     37.21     0  00:09      1.08    0.33    0.36
  G82                  CONDUIT    177.24     0  00:09      3.19    0.26    0.45
  G83                  CONDUIT    212.03     0  00:09      3.65    0.60    0.47
  G84                  CONDUIT    251.21     0  00:09      3.13    0.31    0.69
  G85                  CONDUIT      0.49     0  00:05      0.12    0.00    0.12
  G86                  CONDUIT     27.12     0  00:09      1.54    0.05    0.20
  G87                  CONDUIT     80.61     0  00:09      1.93    0.14    0.37
  G88                  CONDUIT    106.90     0  00:09      1.79    0.47    0.48
  G89                  CONDUIT    106.92     0  00:09      1.64    0.17    0.28
  G90                  CONDUIT     46.67     0  00:09      1.97    0.13    0.24
  G91                  CONDUIT     46.59     0  00:09      1.17    0.13    0.35
  G92                  CONDUIT     49.12     0  00:09      1.74    0.14    0.36
  G94                  CONDUIT     33.06     0  00:09      1.52    0.09    0.36
  G93                  CONDUIT     95.36     0  00:09      1.56    0.45    0.49
  G95                  CONDUIT    128.09     0  00:09      1.99    0.52    0.51
  G96                  CONDUIT     44.14     0  00:09      1.71    0.13    0.37
  G152                 CONDUIT   1061.96     0  00:09      2.93    0.80    0.68
  G153                 CONDUIT    171.86     0  00:09      2.68    0.51    0.51
  
  
  ***************************
  Flow Classification Summary
  ***************************
  
  -------------------------------------------------------------------------------------
                      Adjusted    ---------- Fraction of Time in Flow Class ---------- 
                       /Actual         Up    Down  Sub   Sup   Up    Down  Norm  Inlet 
  Conduit               Length    Dry  Dry   Dry   Crit  Crit  Crit  Crit  Ltd   Ctrl  
  -------------------------------------------------------------------------------------
  G1                      1.00   0.14  0.00  0.00  0.75  0.11  0.00  0.00  0.65  0.00
  G2                      1.00   0.14  0.00  0.00  0.81  0.05  0.00  0.00  0.67  0.00
  G3                      1.00   0.14  0.00  0.00  0.82  0.04  0.00  0.00  0.67  0.00
  G4                      1.00   0.14  0.00  0.00  0.72  0.14  0.00  0.00  0.64  0.00
  G5                      1.00   0.14  0.00  0.00  0.82  0.04  0.00  0.00  0.63  0.00
  G6                      1.00   0.14  0.00  0.00  0.22  0.65  0.00  0.00  0.60  0.00
  G7                      1.00   0.14  0.00  0.00  0.29  0.57  0.00  0.00  0.60  0.00
  G8                      1.00   0.14  0.00  0.00  0.81  0.05  0.00  0.00  0.59  0.00
  G38                     1.00   0.14  0.00  0.00  0.67  0.19  0.00  0.00  0.83  0.00
  G39                     1.00   0.14  0.00  0.00  0.82  0.04  0.00  0.00  0.83  0.00
  G40                     1.00   0.14  0.00  0.00  0.82  0.04  0.00  0.00  0.79  0.00
  G41                     1.00   0.14  0.00  0.00  0.86  0.00  0.00  0.00  0.00  0.00
  G42                     1.00   0.14  0.00  0.00  0.82  0.05  0.00  0.00  0.69  0.00
  G43                     1.00   0.14  0.00  0.00  0.11  0.75  0.00  0.00  0.67  0.00
  G44                     1.00   0.14  0.00  0.00  0.80  0.06  0.00  0.00  0.66  0.00
  G45                     1.00   0.14  0.00  0.00  0.08  0.78  0.00  0.00  0.61  0.00
  G46                     1.00   0.14  0.00  0.00  0.80  0.06  0.00  0.00  0.69  0.00
  G47                     1.00   0.14  0.00  0.00  0.08  0.79  0.00  0.00  0.64  0.00
  G48                     1.00   0.14  0.00  0.00  0.83  0.03  0.00  0.00  0.67  0.00
  G49                     1.00   0.14  0.00  0.00  0.00  0.86  0.00  0.00  0.05  0.00
  G50                     1.00   0.14  0.00  0.00  0.80  0.06  0.00  0.00  0.74  0.00
  G51                     1.00   0.14  0.00  0.00  0.00  0.86  0.00  0.00  0.68  0.00
  G52                     1.00   0.14  0.00  0.00  0.77  0.09  0.00  0.00  0.69  0.00
  G53                     1.00   0.14  0.00  0.00  0.00  0.86  0.00  0.00  0.80  0.00
  G54                     1.00   0.14  0.00  0.00  0.00  0.86  0.00  0.00  0.27  0.00
  G56                     1.00   0.14  0.00  0.00  0.00  0.12  0.00  0.74  0.09  0.00
  G16                     1.00   0.14  0.00  0.00  0.70  0.17  0.00  0.00  0.68  0.00
  G17                     1.00   0.14  0.00  0.00  0.81  0.05  0.00  0.00  0.75  0.00
  G18                     1.00   0.14  0.00  0.00  0.82  0.04  0.00  0.00  0.83  0.00
  G19                     1.00   0.14  0.00  0.00  0.72  0.15  0.00  0.00  0.65  0.00
  G20                     1.00   0.14  0.00  0.00  0.09  0.77  0.00  0.00  0.45  0.00
  G21                     1.00   0.14  0.00  0.00  0.83  0.02  0.00  0.00  0.73  0.00
  G22                     1.00   0.14  0.00  0.00  0.82  0.04  0.00  0.00  0.77  0.00
  G23                     1.00   0.14  0.00  0.00  0.00  0.00  0.00  0.86  0.00  0.00
  G24                     1.00   0.14  0.00  0.00  0.82  0.04  0.00  0.00  0.67  0.00
  G25                     1.00   0.14  0.00  0.00  0.01  0.85  0.00  0.00  0.66  0.00
  G26                     1.00   0.14  0.00  0.00  0.84  0.02  0.00  0.00  0.39  0.00
  G27                     1.00   0.14  0.00  0.00  0.02  0.84  0.00  0.00  0.46  0.00
  G28                     1.00   0.14  0.00  0.00  0.81  0.05  0.00  0.00  0.72  0.00
  G9                      1.00   0.14  0.00  0.00  0.00  0.00  0.00  0.86  0.00  0.00
  G10                     1.00   0.14  0.00  0.00  0.82  0.04  0.00  0.00  0.60  0.00
  G11                     1.00   0.14  0.00  0.00  0.02  0.84  0.00  0.00  0.64  0.00
  G12                     1.00   0.14  0.00  0.00  0.82  0.04  0.00  0.00  0.59  0.00
  G13                     1.00   0.14  0.00  0.00  0.57  0.29  0.00  0.00  0.56  0.00
  G14                     1.00   0.14  0.00  0.00  0.03  0.83  0.00  0.00  0.00  0.00
  G29                     1.00   0.14  0.00  0.00  0.00  0.00  0.00  0.86  0.00  0.00
  G15                     1.00   0.14  0.01  0.00  0.04  0.81  0.00  0.00  0.85  0.00
  G30                     1.00   0.14  0.04  0.00  0.00  0.00  0.82  0.00  0.00  0.00
  G31                     1.00   0.14  0.00  0.00  0.02  0.84  0.00  0.00  0.09  0.00
  G33                     1.00   0.14  0.00  0.00  0.00  0.86  0.00  0.00  0.08  0.00
  G34                     1.00   0.14  0.00  0.00  0.79  0.07  0.00  0.00  0.69  0.00
  G35                     1.00   0.14  0.00  0.00  0.00  0.86  0.00  0.00  0.77  0.00
  G36                     1.00   0.14  0.00  0.00  0.77  0.09  0.00  0.00  0.69  0.00
  G37                     1.00   0.14  0.00  0.00  0.00  0.08  0.00  0.78  0.06  0.00
  G32                     1.00   0.14  0.00  0.00  0.79  0.07  0.00  0.00  0.63  0.00
  G57                     1.00   0.14  0.00  0.00  0.00  0.85  0.00  0.00  0.57  0.00
  G58                     1.00   0.14  0.00  0.00  0.52  0.34  0.00  0.00  0.83  0.00
  G59                     1.00   0.14  0.00  0.00  0.00  0.00  0.00  0.86  0.00  0.00
  G61                     1.00   0.14  0.00  0.00  0.45  0.41  0.00  0.00  0.69  0.00
  G63                     1.00   0.14  0.00  0.00  0.01  0.85  0.00  0.00  0.68  0.00
  G64                     1.00   0.14  0.00  0.00  0.46  0.40  0.00  0.00  0.73  0.00
  G66                     1.00   0.14  0.00  0.00  0.82  0.04  0.00  0.00  0.58  0.00
  G65                     1.00   0.14  0.00  0.00  0.01  0.85  0.00  0.00  0.49  0.00
  G67                     1.00   0.14  0.00  0.00  0.02  0.84  0.00  0.00  0.09  0.00
  G68                     1.00   0.14  0.00  0.00  0.75  0.11  0.00  0.00  0.70  0.00
  G69                     1.00   0.14  0.00  0.00  0.00  0.86  0.00  0.00  0.29  0.00
  G70                     1.00   0.14  0.00  0.00  0.76  0.10  0.00  0.00  0.77  0.00
  G71                     1.00   0.14  0.00  0.00  0.00  0.86  0.00  0.00  0.79  0.00
  G72                     1.00   0.14  0.00  0.00  0.76  0.10  0.00  0.00  0.73  0.00
  G73                     1.00   0.14  0.00  0.00  0.00  0.86  0.00  0.00  0.75  0.00
  G74                     1.00   0.14  0.00  0.00  0.00  0.86  0.00  0.00  0.67  0.00
  G75                     1.00   0.14  0.00  0.00  0.01  0.85  0.00  0.00  0.68  0.00
  G76                     1.00   0.14  0.00  0.00  0.02  0.83  0.00  0.00  0.69  0.00
  G78                     1.00   0.14  0.00  0.00  0.17  0.69  0.00  0.00  0.67  0.00
  G77                     1.00   0.14  0.00  0.00  0.82  0.05  0.00  0.00  0.63  0.00
  G60                     1.00   0.14  0.01  0.00  0.85  0.00  0.00  0.00  0.13  0.00
  G62                     1.00   0.14  0.01  0.00  0.85  0.00  0.00  0.00  0.17  0.00
  G79                     1.00   0.14  0.00  0.00  0.37  0.49  0.00  0.00  0.02  0.00
  G80                     1.00   0.14  0.00  0.00  0.00  0.86  0.00  0.00  0.84  0.00
  G81                     1.00   0.14  0.00  0.00  0.80  0.06  0.00  0.00  0.64  0.00
  G82                     1.00   0.14  0.00  0.00  0.00  0.86  0.00  0.00  0.84  0.00
  G83                     1.00   0.14  0.00  0.00  0.00  0.86  0.00  0.00  0.16  0.00
  G84                     1.00   0.14  0.00  0.00  0.66  0.20  0.00  0.00  0.83  0.00
  G85                     1.00   0.14  0.02  0.00  0.84  0.00  0.00  0.00  0.65  0.00
  G86                     1.00   0.14  0.00  0.00  0.00  0.86  0.00  0.00  0.86  0.00
  G87                     1.00   0.14  0.00  0.00  0.00  0.86  0.00  0.00  0.84  0.00
  G88                     1.00   0.14  0.00  0.00  0.00  0.00  0.00  0.86  0.00  0.00
  G89                     1.00   0.14  0.00  0.00  0.00  0.03  0.00  0.83  0.01  0.00
  G90                     1.00   0.14  0.00  0.00  0.00  0.86  0.00  0.00  0.69  0.00
  G91                     1.00   0.14  0.00  0.00  0.50  0.36  0.00  0.00  0.84  0.00
  G92                     1.00   0.14  0.00  0.00  0.67  0.19  0.00  0.00  0.69  0.00
  G94                     1.00   0.14  0.00  0.00  0.81  0.05  0.00  0.00  0.83  0.00
  G93                     1.00   0.14  0.00  0.00  0.20  0.66  0.00  0.00  0.71  0.00
  G95                     1.00   0.14  0.00  0.00  0.02  0.83  0.00  0.00  0.48  0.00
  G96                     1.00   0.14  0.00  0.00  0.76  0.11  0.00  0.00  0.70  0.00
  G152                    1.00   0.14  0.00  0.00  0.01  0.85  0.00  0.00  0.59  0.00
  G153                    1.00   0.14  0.00  0.00  0.00  0.86  0.00  0.00  0.63  0.00
  
  
  *************************
  Conduit Surcharge Summary
  *************************
  
  ----------------------------------------------------------------------------
                                                           Hours        Hours 
                         --------- Hours Full --------   Above Full   Capacity
  Conduit                Both Ends  Upstream  Dnstream   Normal Flow   Limited
  ----------------------------------------------------------------------------
  G1                          0.02      0.02      0.03      0.01         0.01
  G2                          0.03      0.03      0.06      0.01         0.01
  G3                          0.05      0.05      0.06      0.01         0.01
  G4                          0.06      0.06      0.07      0.01         0.01
  G5                          0.06      0.06      0.07      0.01         0.01
  G6                          0.07      0.07      0.08      0.04         0.05
  G7                          0.07      0.08      0.08      0.08         0.07
  G8                          0.06      0.06      0.08      0.01         0.01
  G39                         0.01      0.01      0.04      0.01         0.01
  G40                         0.02      0.02      0.04      0.01         0.01
  G41                         0.03      0.04      0.03      0.06         0.02
  G42                         0.02      0.02      0.03      0.01         0.01
  G43                         0.03      0.03      0.03      0.01         0.01
  G44                         0.03      0.03      0.03      0.01         0.01
  G45                         0.03      0.03      0.03      0.03         0.03
  G46                         0.03      0.03      0.03      0.01         0.01
  G47                         0.03      0.03      0.05      0.03         0.03
  G48                         0.03      0.03      0.05      0.01         0.01
  G49                         0.01      0.05      0.01      0.05         0.01
  G17                         0.01      0.01      0.02      0.01         0.01
  G18                         0.01      0.01      0.02      0.01         0.01
  G19                         0.02      0.02      0.04      0.01         0.01
  G20                         0.01      0.01      0.01      0.01         0.01
  G21                         0.01      0.01      0.04      0.01         0.01
  G22                         0.01      0.01      0.04      0.01         0.01
  G23                         0.01      0.04      0.01      0.06         0.01
  G9                          0.01      0.08      0.01      0.10         0.01
  G12                         0.01      0.01      0.05      0.01         0.01
  G14                         0.01      0.01      0.01      0.07         0.01
  G30                         0.01      0.01      0.40      0.01         0.01
  G66                         0.01      0.01      0.01      0.02         0.01
  G84                         0.01      0.01      0.07      0.01         0.01
  

  Analysis begun on:  Thu Aug 21 12:32:26 2025
  Analysis ended on:  Thu Aug 21 12:32:28 2025
  Total elapsed time: 00:00:02