
  EPA STORM WATER MANAGEMENT MODEL - VERSION 5.2 (Build 5.2.4)
  PYSWMM TOOLKIT API - VERSION v1.0 (2023-11-27)
  ------------------------------------------------------------

  test 
  
  ****************
  Analysis Options
  ****************
  Flow Units ............... LPS
  Process Models:
    Rainfall/Runoff ........ YES
    RDII ................... NO
    Snowmelt ............... NO
    Groundwater ............ NO
    Flow Routing ........... YES
    Ponding Allowed ........ YES
    Water Quality .......... NO
  Infiltration Method ...... CURVE_NUMBER
  Flow Routing Method ...... DYNWAVE
  Surcharge Method ......... EXTRAN
  Starting Date ............ 11/13/2024 00:00:00
  Ending Date .............. 11/13/2024 01:55:00
  Antecedent Dry Days ...... 7.0
  Report Time Step ......... 00:05:00
  Wet Time Step ............ 00:01:00
  Dry Time Step ............ 01:00:00
  Routing Time Step ........ 0.60 sec
  Variable Time Step ....... YES
  Maximum Trials ........... 8
  Number of Threads ........ 1
  Head Tolerance ........... 0.001500 m
  
  
  **************************        Volume         Depth
  Runoff Quantity Continuity     hectare-m            mm
  **************************     ---------       -------
  Total Precipitation ......         0.541        58.390
  Evaporation Loss .........         0.000         0.000
  Infiltration Loss ........         0.024         2.610
  Surface Runoff ...........         0.511        55.127
  Final Storage ............         0.004         0.431
  Continuity Error (%) .....         0.380
  
  
  **************************        Volume        Volume
  Flow Routing Continuity        hectare-m      10^6 ltr
  **************************     ---------     ---------
  Dry Weather Inflow .......         0.000         0.000
  Wet Weather Inflow .......         0.511         5.109
  Groundwater Inflow .......         0.000         0.000
  RDII Inflow ..............         0.000         0.000
  External Inflow ..........         0.000         0.000
  External Outflow .........         0.510         5.103
  Flooding Loss ............         0.000         0.000
  Evaporation Loss .........         0.000         0.000
  Exfiltration Loss ........         0.000         0.000
  Initial Stored Volume ....         0.000         0.000
  Final Stored Volume ......         0.001         0.006
  Continuity Error (%) .....        -0.006
  
  
  *************************
  Highest Continuity Errors
  *************************
  Node P31 (1.36%)
  
  
  ***************************
  Time-Step Critical Elements
  ***************************
  None
  
  
  ********************************
  Highest Flow Instability Indexes
  ********************************
  Link G66 (15)
  Link G65 (5)
  Link G79 (5)
  Link G40 (4)
  Link G8 (4)
  
  
  *********************************
  Most Frequent Nonconverging Nodes
  *********************************
  Node E1 (3.09%)
  Node E32 (3.09%)
  Node E33 (3.09%)
  Node P24 (0.41%)
  Node P50 (0.38%)
  
  
  *************************
  Routing Time Step Summary
  *************************
  Minimum Time Step           :     0.40 sec
  Average Time Step           :     0.50 sec
  Maximum Time Step           :     0.60 sec
  % of Time in Steady State   :     0.00
  Average Iterations per Step :     2.30
  % of Steps Not Converging   :     3.09
  Time Step Frequencies       :
      0.600 -  0.579 sec      :    99.09 %
      0.579 -  0.558 sec      :     0.07 %
      0.558 -  0.538 sec      :     0.03 %
      0.538 -  0.519 sec      :     0.07 %
      0.519 -  0.500 sec      :     0.74 %
  
  
  ***************************
  Subcatchment Runoff Summary
  ***************************
  
  ------------------------------------------------------------------------------------------------------------------------------
                            Total      Total      Total      Total     Imperv       Perv      Total       Total     Peak  Runoff
                           Precip      Runon       Evap      Infil     Runoff     Runoff     Runoff      Runoff   Runoff   Coeff
  Subcatchment                 mm         mm         mm         mm         mm         mm         mm    10^6 ltr      LPS
  ------------------------------------------------------------------------------------------------------------------------------
  B140                      58.39       0.00       0.00       2.61      51.11       4.40      55.07        0.04    31.29   0.943
  B139                      58.39       0.00       0.00       2.61      51.11       4.40      55.07        0.04    30.91   0.943
  B141                      58.39       0.00       0.00       2.61      51.14       4.41      55.11        0.02    14.91   0.944
  B142                      58.39       0.00       0.00       2.61      51.14       4.41      55.11        0.02    14.91   0.944
  B144                      58.39       0.00       0.00       2.61      51.14       4.41      55.11        0.02    14.91   0.944
  B145                      58.39       0.00       0.00       2.61      51.14       4.41      55.11        0.02    14.91   0.944
  B146                      58.39       0.00       0.00       2.61      51.14       4.41      55.11        0.02    14.91   0.944
  B147                      58.39       0.00       0.00       2.61      51.14       4.41      55.11        0.02    14.91   0.944
  B148                      58.39       0.00       0.00       2.61      51.14       4.41      55.11        0.02    14.91   0.944
  B149                      58.39       0.00       0.00       2.61      51.10       4.40      55.05        0.03    29.19   0.943
  B108                      58.39       0.00       0.00       2.61      51.09       4.39      55.04        0.02    14.86   0.943
  B42                       58.39       0.00       0.00       2.61      51.07       4.39      55.02        0.02    14.85   0.942
  B40                       58.39       0.00       0.00       2.61      51.07       4.39      55.02        0.02    14.85   0.942
  B38                       58.39       0.00       0.00       2.61      51.07       4.39      55.02        0.02    14.85   0.942
  B36                       58.39       0.00       0.00       2.61      51.07       4.39      55.02        0.02    14.85   0.942
  B34                       58.39       0.00       0.00       2.61      51.07       4.39      55.02        0.02    14.85   0.942
  B32                       58.39       0.00       0.00       2.61      51.07       4.39      55.02        0.02    14.85   0.942
  B30                       58.39       0.00       0.00       2.61      51.07       4.39      55.02        0.02    14.85   0.942
  B9                        58.39       0.00       0.00       2.61      51.07       4.39      55.02        0.02    14.85   0.942
  B7                        58.39       0.00       0.00       2.61      51.07       4.39      55.46        0.02    14.99   0.950
  B5                        58.39       0.00       0.00       2.61      51.07       4.39      55.02        0.02    14.85   0.942
  B3                        58.39       0.00       0.00       2.61      51.07       4.39      55.02        0.02    14.85   0.942
  B1                        58.39       0.00       0.00       2.61      51.07       4.39      55.46        0.02    14.99   0.950
  B23                       58.39       0.00       0.00       2.61      51.07       4.39      55.46        0.02    14.99   0.950
  B21                       58.39       0.00       0.00       2.61      51.07       4.39      55.02        0.02    14.85   0.942
  B19                       58.39       0.00       0.00       2.61      51.07       4.39      55.02        0.02    14.85   0.942
  B17                       58.39       0.00       0.00       2.61      51.07       4.39      55.02        0.02    14.85   0.942
  B15                       58.39       0.00       0.00       2.61      51.07       4.39      55.02        0.02    14.85   0.942
  B13                       58.39       0.00       0.00       2.61      51.07       4.39      55.02        0.02    14.85   0.942
  B11                       58.39       0.00       0.00       2.61      51.07       4.39      55.02        0.02    14.85   0.942
  B129                      58.39       0.00       0.00       2.61      51.14       4.41      55.11        0.02    14.91   0.944
  B127                      58.39       0.00       0.00       2.61      51.14       4.41      55.11        0.02    14.91   0.944
  B125                      58.39       0.00       0.00       2.61      51.14       4.41      55.11        0.02    14.91   0.944
  B123                      58.39       0.00       0.00       2.61      51.12       4.40      55.09        0.02    14.90   0.943
  B121                      58.39       0.00       0.00       2.61      51.12       4.40      55.09        0.02    14.90   0.943
  B120                      58.39       0.00       0.00       2.61      51.12       4.40      55.09        0.02    14.90   0.943
  B119                      58.39       0.00       0.00       2.61      51.12       4.40      55.09        0.02    14.90   0.943
  B113                      58.39       0.00       0.00       2.61      51.09       4.39      55.04        0.02    14.86   0.943
  B111                      58.39       0.00       0.00       2.61      51.09       4.39      55.04        0.02    14.86   0.943
  B109                      58.39       0.00       0.00       2.61      51.09       4.39      55.04        0.02    14.86   0.943
  B107                      58.39       0.00       0.00       2.61      51.09       4.39      55.04        0.02    14.86   0.943
  B105                      58.39       0.00       0.00       2.61      51.09       4.39      55.04        0.02    14.86   0.943
  B103                      58.39       0.00       0.00       2.61      51.09       4.39      55.04        0.02    14.86   0.943
  B101                      58.39       0.00       0.00       2.61      51.09       4.39      55.04        0.02    14.86   0.943
  BB118                     58.39       0.00       0.00       2.61      51.09       4.39      55.04        0.03    29.17   0.943
  B99                       58.39       0.00       0.00       2.61      50.99       4.37      54.93        0.03    28.82   0.941
  B28                       58.39       0.00       0.00       2.61      50.97       4.36      54.90        0.03    28.69   0.940
  B115                      58.39       0.00       0.00       2.61      51.09       4.39      55.04        0.02    14.86   0.943
  B22                       58.39       0.00       0.00       2.61      51.07       4.39      55.02        0.02    14.85   0.942
  B20                       58.39       0.00       0.00       2.61      51.07       4.39      55.02        0.02    14.85   0.942
  B18                       58.39       0.00       0.00       2.61      51.07       4.39      55.02        0.02    14.85   0.942
  B16                       58.39       0.00       0.00       2.61      51.07       4.39      55.02        0.02    14.85   0.942
  B14                       58.39       0.00       0.00       2.61      51.07       4.39      55.02        0.02    14.85   0.942
  B12                       58.39       0.00       0.00       2.61      51.07       4.39      55.02        0.02    14.85   0.942
  B10                       58.39       0.00       0.00       2.61      51.07       4.39      55.02        0.02    14.85   0.942
  B8                        58.39       0.00       0.00       2.61      51.07       4.39      55.46        0.02    14.99   0.950
  B6                        58.39       0.00       0.00       2.61      51.07       4.39      55.02        0.02    14.85   0.942
  B4                        58.39       0.00       0.00       2.61      51.07       4.39      55.02        0.02    14.85   0.942
  B2                        58.39       0.00       0.00       2.61      51.07       4.39      55.02        0.02    14.85   0.942
  B29                       58.39       0.00       0.00       2.61      51.07       4.39      55.02        0.02    14.85   0.942
  B31                       58.39       0.00       0.00       2.61      51.07       4.39      55.02        0.02    14.85   0.942
  B33                       58.39       0.00       0.00       2.61      51.07       4.39      55.02        0.02    14.85   0.942
  B35.                      58.39       0.00       0.00       2.61      51.07       4.39      55.02        0.02    14.85   0.942
  B37                       58.39       0.00       0.00       2.61      51.07       4.39      55.02        0.02    14.85   0.942
  B39                       58.39       0.00       0.00       2.61      51.07       4.39      55.46        0.02    14.99   0.950
  B41                       58.39       0.00       0.00       2.61      51.07       4.39      55.02        0.02    14.85   0.942
  B43                       58.39       0.00       0.00       2.61      51.07       4.39      55.02        0.02    14.85   0.942
  B27                       58.39       0.00       0.00       2.61      50.97       4.36      54.90        0.03    28.69   0.940
  B25                       58.39       0.00       0.00       2.61      50.97       4.36      54.90        0.03    28.69   0.940
  B24                       58.39       0.00       0.00       2.61      50.97       4.36      55.33        0.03    28.95   0.948
  B67                       58.39       0.00       0.00       2.61      50.97       4.36      54.90        0.03    28.69   0.940
  B68                       58.39       0.00       0.00       2.61      50.97       4.36      54.90        0.03    28.69   0.940
  B98                       58.39       0.00       0.00       2.61      50.99       4.37      54.93        0.03    28.82   0.941
  B97                       58.39       0.00       0.00       2.61      50.91       4.35      54.82        0.03    28.31   0.939
  B46                       58.39       0.00       0.00       2.61      51.04       4.38      54.98        0.02    19.73   0.942
  B45                       58.39       0.00       0.00       2.61      50.95       4.35      54.87        0.04    33.30   0.940
  B47                       58.39       0.00       0.00       2.61      50.94       4.35      54.86        0.04    34.03   0.939
  B44                       58.39       0.00       0.00       2.61      51.04       4.38      54.98        0.02    19.72   0.942
  B122                      58.39       0.00       0.00       2.61      51.09       4.39      55.04        0.03    29.18   0.943
  B124                      58.39       0.00       0.00       2.61      51.12       4.40      55.09        0.02    14.90   0.943
  B126                      58.39       0.00       0.00       2.61      51.12       4.40      55.09        0.02    14.90   0.943
  B128                      58.39       0.00       0.00       2.61      51.12       4.40      55.09        0.02    14.90   0.943
  B130                      58.39       0.00       0.00       2.61      51.12       4.40      55.09        0.02    14.90   0.943
  B132                      58.39       0.00       0.00       2.61      51.14       4.41      55.11        0.02    14.91   0.944
  B135                      58.39       0.00       0.00       2.61      51.14       4.41      55.11        0.02    14.91   0.944
  B137                      58.39       0.00       0.00       2.61      51.14       4.41      55.11        0.02    14.91   0.944
  BBB118                    58.39       0.00       0.00       2.61      50.99       4.37      54.93        0.03    28.82   0.941
  B48                       58.39       0.00       0.00       2.61      50.97       4.36      54.90        0.03    28.69   0.940
  BB117                     58.39       0.00       0.00       2.61      50.99       4.37      54.93        0.03    28.82   0.941
  B83                       58.39       0.00       0.00       2.61      51.07       4.39      55.02        0.02    14.85   0.942
  B81                       58.39       0.00       0.00       2.61      51.07       4.39      55.02        0.02    14.85   0.942
  B79                       58.39       0.00       0.00       2.61      51.07       4.39      55.02        0.02    14.85   0.942
  B77                       58.39       0.00       0.00       2.61      51.07       4.39      55.02        0.02    14.85   0.942
  B75                       58.39       0.00       0.00       2.61      51.07       4.39      55.02        0.02    14.85   0.942
  B73                       58.39       0.00       0.00       2.61      51.07       4.39      55.02        0.02    14.85   0.942
  B71                       58.39       0.00       0.00       2.61      51.07       4.39      55.02        0.02    14.85   0.942
  B69                       58.39       0.00       0.00       2.61      51.07       4.39      55.02        0.02    14.85   0.942
  B70                       58.39       0.00       0.00       2.61      51.07       4.39      55.02        0.02    14.85   0.942
  B72                       58.39       0.00       0.00       2.61      51.07       4.39      55.02        0.02    14.85   0.942
  B74                       58.39       0.00       0.00       2.61      51.07       4.39      55.02        0.02    14.85   0.942
  B76                       58.39       0.00       0.00       2.61      51.07       4.39      55.02        0.02    14.85   0.942
  B78                       58.39       0.00       0.00       2.61      51.07       4.39      55.02        0.02    14.85   0.942
  B80                       58.39       0.00       0.00       2.61      51.07       4.39      55.02        0.02    14.85   0.942
  B82                       58.39       0.00       0.00       2.61      51.07       4.39      55.02        0.02    14.85   0.942
  B84                       58.39       0.00       0.00       2.61      51.07       4.39      55.02        0.02    14.85   0.942
  B85                       58.39       0.00       0.00       2.61      51.09       4.39      55.04        0.02    14.86   0.943
  B86                       58.39       0.00       0.00       2.61      51.09       4.39      55.04        0.02    14.86   0.943
  B88                       58.39       0.00       0.00       2.61      51.09       4.39      55.04        0.02    14.86   0.943
  B90                       58.39       0.00       0.00       2.61      51.09       4.39      55.04        0.02    14.86   0.943
  B92                       58.39       0.00       0.00       2.61      51.09       4.39      55.04        0.02    14.86   0.943
  B94                       58.39       0.00       0.00       2.61      51.09       4.39      55.04        0.02    14.86   0.943
  B96                       58.39       0.00       0.00       2.61      51.09       4.39      55.04        0.02    14.86   0.943
  B95                       58.39       0.00       0.00       2.61      51.09       4.39      55.04        0.02    14.86   0.943
  B93                       58.39       0.00       0.00       2.61      51.09       4.39      55.04        0.02    14.87   0.943
  B91                       58.39       0.00       0.00       2.61      51.09       4.39      55.04        0.02    14.86   0.943
  B89                       58.39       0.00       0.00       2.61      51.09       4.39      55.04        0.02    14.86   0.943
  B87                       58.39       0.00       0.00       2.61      51.09       4.39      55.04        0.02    14.86   0.943
  B116                      58.39       0.00       0.00       2.61      51.09       4.39      55.04        0.02    14.86   0.943
  B114                      58.39       0.00       0.00       2.61      51.09       4.39      55.04        0.02    14.86   0.943
  B112                      58.39       0.00       0.00       2.61      51.09       4.39      55.04        0.02    14.86   0.943
  B110                      58.39       0.00       0.00       2.61      51.09       4.39      55.04        0.02    14.86   0.943
  B50                       58.39       0.00       0.00       2.61      51.07       4.39      55.02        0.02    14.85   0.942
  B52                       58.39       0.00       0.00       2.61      51.07       4.39      55.02        0.02    14.85   0.942
  B54                       58.39       0.00       0.00       2.61      51.07       4.39      55.02        0.02    14.85   0.942
  B56                       58.39       0.00       0.00       2.61      51.07       4.39      55.02        0.02    14.85   0.942
  B58                       58.39       0.00       0.00       2.61      51.07       4.39      55.02        0.02    14.85   0.942
  B60                       58.39       0.00       0.00       2.61      51.07       4.39      55.02        0.02    14.85   0.942
  B106                      58.39       0.00       0.00       2.61      51.09       4.39      55.04        0.02    14.86   0.943
  B104                      58.39       0.00       0.00       2.61      51.09       4.39      55.04        0.02    14.86   0.943
  B102                      58.39       0.00       0.00       2.61      51.09       4.39      55.04        0.02    14.86   0.943
  B100                      58.39       0.00       0.00       2.61      50.99       4.37      54.93        0.03    28.82   0.941
  B66                       58.39       0.00       0.00       2.61      50.97       4.36      54.90        0.03    28.69   0.940
  B62                       58.39       0.00       0.00       2.61      51.07       4.39      55.02        0.02    14.85   0.942
  B64                       58.39       0.00       0.00       2.61      51.07       4.39      55.02        0.02    14.85   0.942
  B65                       58.39       0.00       0.00       2.61      50.97       4.36      54.90        0.03    28.69   0.940
  B63                       58.39       0.00       0.00       2.61      51.07       4.39      55.02        0.02    14.85   0.942
  B61                       58.39       0.00       0.00       2.61      51.07       4.39      55.02        0.02    14.85   0.942
  B59                       58.39       0.00       0.00       2.61      51.07       4.39      55.02        0.02    14.85   0.942
  B57                       58.39       0.00       0.00       2.61      51.07       4.39      55.02        0.02    14.85   0.942
  B55                       58.39       0.00       0.00       2.61      51.07       4.39      55.02        0.02    14.85   0.942
  B53                       58.39       0.00       0.00       2.61      51.07       4.39      55.02        0.02    14.85   0.942
  B51                       58.39       0.00       0.00       2.61      51.07       4.39      55.02        0.02    14.85   0.942
  B49                       58.39       0.00       0.00       2.61      51.07       4.39      55.02        0.02    14.85   0.942
  B138                      58.39       0.00       0.00       2.61      51.11       4.40      55.07        0.04    32.80   0.943
  B188                      58.39       0.00       0.00       2.61      51.10       4.39      55.49        0.04    32.27   0.950
  B189                      58.39       0.00       0.00       2.61      51.13       4.41      55.54        0.02    15.05   0.951
  B190                      58.39       0.00       0.00       2.61      51.13       4.41      55.54        0.02    15.05   0.951
  B191                      58.39       0.00       0.00       2.61      51.13       4.41      55.54        0.02    15.05   0.951
  B192                      58.39       0.00       0.00       2.61      51.13       4.41      55.54        0.02    15.05   0.951
  B193                      58.39       0.00       0.00       2.61      51.13       4.41      55.54        0.02    15.05   0.951
  B194                      58.39       0.00       0.00       2.61      51.10       4.40      55.49        0.03    29.47   0.950
  B195                      58.39       0.00       0.00       2.61      50.97       4.36      55.34        0.03    28.96   0.948
  B196                      58.39       0.00       0.00       2.61      51.07       4.39      55.46        0.02    14.99   0.950
  B197                      58.39       0.00       0.00       2.61      51.07       4.39      55.46        0.02    14.99   0.950
  B198                      58.39       0.00       0.00       2.61      51.07       4.39      55.46        0.02    14.99   0.950
  B199                      58.39       0.00       0.00       2.61      51.07       4.39      55.46        0.02    14.99   0.950
  B204                      58.39       0.00       0.00       2.61      50.97       4.36      55.34        0.03    28.96   0.948
  B203                      58.39       0.00       0.00       2.61      51.07       4.39      55.46        0.02    14.99   0.950
  B202                      58.39       0.00       0.00       2.61      51.07       4.39      55.46        0.02    14.99   0.950
  B200                      58.39       0.00       0.00       2.61      51.07       4.39      55.46        0.02    14.99   0.950
  B201                      58.39       0.00       0.00       2.61      51.07       4.39      55.46        0.02    14.99   0.950
  B176                      58.39       0.00       0.00       2.61      51.10       4.39      55.05        0.04    32.11   0.943
  B177                      58.39       0.00       0.00       2.61      51.13       4.41      55.10        0.02    14.91   0.944
  B178                      58.39       0.00       0.00       2.61      51.13       4.41      55.54        0.02    15.05   0.951
  B179                      58.39       0.00       0.00       2.61      51.13       4.41      55.54        0.02    15.05   0.951
  B180                      58.39       0.00       0.00       2.61      51.13       4.41      55.54        0.02    15.05   0.951
  B181                      58.39       0.00       0.00       2.61      51.13       4.41      55.54        0.02    15.05   0.951
  B182                      58.39       0.00       0.00       2.61      51.13       4.41      55.54        0.02    15.05   0.951
  B183                      58.39       0.00       0.00       2.61      51.07       4.39      55.46        0.02    14.99   0.950
  B184                      58.39       0.00       0.00       2.61      51.07       4.39      55.46        0.02    14.99   0.950
  B185                      58.39       0.00       0.00       2.61      51.07       4.39      55.46        0.02    14.99   0.950
  B186                      58.39       0.00       0.00       2.61      51.07       4.39      55.46        0.02    14.99   0.950
  B187                      58.39       0.00       0.00       2.61      50.97       4.36      54.90        0.03    28.71   0.940
  B165                      58.39       0.00       0.00       2.61      51.06       4.38      55.01        0.03    29.09   0.942
  BB166                     58.39       0.00       0.00       2.61      51.12       4.40      55.52        0.02    15.04   0.951
  BB167                     58.39       0.00       0.00       2.61      51.12       4.40      55.52        0.02    15.04   0.951
  B168                      58.39       0.00       0.00       2.61      51.14       4.41      55.55        0.02    15.05   0.951
  B169                      58.39       0.00       0.00       2.61      51.14       4.41      55.11        0.02    14.91   0.944
  B170                      58.39       0.00       0.00       2.61      51.14       4.41      55.11        0.02    14.91   0.944
  B171                      58.39       0.00       0.00       2.61      51.14       4.41      55.11        0.02    14.91   0.944
  B172                      58.39       0.00       0.00       2.61      51.14       4.41      55.11        0.02    14.91   0.944
  B173                      58.39       0.00       0.00       2.61      51.14       4.42      55.11        0.02    14.91   0.944
  B174                      58.39       0.00       0.00       2.61      51.14       4.42      55.11        0.02    14.91   0.944
  B175                      58.39       0.00       0.00       2.61      51.12       4.40      55.08        0.03    30.03   0.943
  B150                      58.39       0.00       0.00       2.61      51.12       4.40      55.52        0.04    30.37   0.951
  B151                      58.39       0.00       0.00       2.61      51.14       4.41      55.55        0.02    17.59   0.951
  B152                      58.39       0.00       0.00       2.61      51.14       4.41      55.55        0.02    17.59   0.951
  B153                      58.39       0.00       0.00       2.61      51.14       4.41      55.55        0.02    16.30   0.951
  B154                      58.39       0.00       0.00       2.61      51.14       4.41      55.55        0.02    17.01   0.951
  B155                      58.39       0.00       0.00       2.61      51.13       4.41      55.54        0.02    17.73   0.951
  B157                      58.39       0.00       0.00       2.61      51.14       4.41      55.55        0.02    15.44   0.951
  B158                      58.39       0.00       0.00       2.61      51.14       4.41      55.11        0.02    15.52   0.944
  B159                      58.39       0.00       0.00       2.61      51.11       4.40      55.07        0.02    16.54   0.943
  B160                      58.39       0.00       0.00       2.61      51.14       4.41      55.11        0.02    14.91   0.944
  B161                      58.39       0.00       0.00       2.61      51.10       4.40      55.06        0.02    19.27   0.943
  B162                      58.39       0.00       0.00       2.61      51.12       4.40      55.08        0.02    14.90   0.943
  B163                      58.39       0.00       0.00       2.61      51.05       4.38      54.99        0.04    33.78   0.942
  B164                      58.39       0.00       0.00       2.61      51.01       4.37      54.95        0.05    42.46   0.941
  B210                      58.39       0.00       0.00       2.61      50.80      29.54      54.94        0.52   407.52   0.941
  B205                      58.39       0.00       0.00       2.61      50.98       4.36      55.34        0.04    30.18   0.948
  B206                      58.39       0.00       0.00       2.61      51.07       4.39      55.45        0.02    16.40   0.950
  B207                      58.39       0.00       0.00       2.61      51.06       4.38      55.44        0.02    17.81   0.949
  B208                      58.39       0.00       0.00       2.61      51.04       4.38      55.42        0.02    19.72   0.949
  B209                      58.39       0.00       0.00       2.61      51.03       4.37      55.40        0.03    22.23   0.949
  B211                      58.39       0.00       0.00       2.61      50.95       4.36      55.31        0.04    32.23   0.947
  B212                      58.39       0.00       0.00       2.61      51.11       4.40      55.51        0.02    15.65   0.951
  B213                      58.39       0.00       0.00       2.61      51.10       4.40      55.49        0.02    17.69   0.950
  B214                      58.39       0.00       0.00       2.61      51.04       4.38      55.41        0.04    31.60   0.949
  B215                      58.39       0.00       0.00       2.61      51.09       4.39      55.49        0.03    24.98   0.950
  B216                      58.39       0.00       0.00       2.61      51.06       4.38      55.44        0.04    35.49   0.950
  B217                      58.39       0.00       0.00       2.61      51.10       4.40      55.49        0.02    15.02   0.950
  B218                      58.39       0.00       0.00       2.61      51.10       4.40      55.49        0.02    15.02   0.950
  B219                      58.39       0.00       0.00       2.61      51.10       4.40      55.49        0.02    15.02   0.950
  B220                      58.39       0.00       0.00       2.61      51.08       4.39      55.47        0.02    18.62   0.950
  B221                      58.39       0.00       0.00       2.61      51.07       4.38      55.45        0.05    41.54   0.950
  B224                      58.39       0.00       0.00       2.61      51.13       4.41      55.54        0.02    15.05   0.951
  B223                      58.39       0.00       0.00       2.61      51.13       4.41      55.54        0.02    15.05   0.951
  B222                      58.39       0.00       0.00       2.61      51.07       4.39      55.46        0.03    25.21   0.950
  
  
  ******************
  Node Depth Summary
  ******************
  
  ---------------------------------------------------------------------------------
                                 Average  Maximum  Maximum  Time of Max    Reported
                                   Depth    Depth      HGL   Occurrence   Max Depth
  Node                 Type       Meters   Meters   Meters  days hr:min      Meters
  ---------------------------------------------------------------------------------
  P1                   JUNCTION     0.13     1.41  1048.60     0  00:50        1.29
  P2                   JUNCTION     0.17     1.58  1048.60     0  00:50        1.46
  P3                   JUNCTION     0.18     1.83  1048.52     0  00:50        1.70
  P4                   JUNCTION     0.24     2.00  1048.52     0  00:50        1.87
  P5                   JUNCTION     0.21     2.00  1048.18     0  00:50        1.89
  P6                   JUNCTION     0.28     2.17  1048.18     0  00:50        2.06
  P7                   JUNCTION     0.29     2.04  1047.83     0  00:50        1.94
  P8                   JUNCTION     0.16     1.33  1046.88     0  00:49        1.28
  P9                   JUNCTION     0.26     1.50  1046.87     0  00:49        1.45
  P10                  JUNCTION     0.05     0.28  1045.22     0  00:47        0.23
  P11                  JUNCTION     0.15     0.43  1045.20     0  00:49        0.41
  P12                  JUNCTION     0.07     0.77  1045.28     0  00:49        0.47
  P13                  JUNCTION     0.17     0.89  1045.22     0  00:49        0.65
  P17                  JUNCTION     0.06     1.00  1047.16     0  00:46        0.85
  P18                  JUNCTION     0.10     1.02  1047.01     0  00:49        1.01
  P19                  JUNCTION     0.06     0.83  1046.78     0  00:49        0.82
  P20                  JUNCTION     0.14     1.28  1046.77     0  00:49        1.28
  P23                  JUNCTION     0.05     0.78  1046.44     0  00:47        0.77
  P24                  JUNCTION     0.16     1.18  1046.44     0  00:49        1.17
  P25                  JUNCTION     0.04     0.24  1044.96     0  00:48        0.20
  P26                  JUNCTION     0.12     0.38  1044.95     0  00:49        0.38
  P27                  JUNCTION     0.10     0.38  1044.59     0  00:49        0.38
  P28                  JUNCTION     0.13     0.42  1044.59     0  00:49        0.42
  P29                  JUNCTION     0.04     0.21  1044.23     0  00:49        0.20
  P30                  JUNCTION     0.12     0.39  1044.24     0  00:48        0.39
  P31                  JUNCTION     0.44     0.55  1043.95     0  00:48        0.54
  P32                  JUNCTION     0.17     0.48  1043.70     0  00:49        0.47
  P33                  JUNCTION     0.04     0.25  1042.69     0  00:49        0.15
  P34                  JUNCTION     0.13     0.36  1042.63     0  00:49        0.36
  P35                  JUNCTION     0.03     0.19  1040.88     0  00:49        0.09
  P36                  JUNCTION     0.12     0.32  1040.83     0  00:49        0.32
  P37                  JUNCTION     0.04     0.16  1037.61     0  00:50        0.12
  P38                  JUNCTION     0.12     0.34  1037.62     0  00:49        0.34
  P39                  JUNCTION     0.06     0.97  1049.13     0  00:48        0.66
  P40                  JUNCTION     0.09     1.00  1049.00     0  00:48        0.82
  P41                  JUNCTION     0.11     1.35  1048.85     0  00:49        1.23
  P42                  JUNCTION     0.24     1.92  1048.84     0  00:49        1.80
  P43                  JUNCTION     0.14     1.60  1048.51     0  00:50        1.43
  P44                  JUNCTION     0.21     1.77  1048.51     0  00:50        1.60
  P45                  JUNCTION     0.14     1.59  1047.88     0  00:50        1.48
  P46                  JUNCTION     0.22     1.76  1047.88     0  00:49        1.65
  P47                  JUNCTION     0.13     1.41  1046.74     0  00:49        1.38
  P48                  JUNCTION     0.20     1.58  1046.74     0  00:49        1.55
  P49                  JUNCTION     0.11     1.28  1045.78     0  00:45        1.19
  P50                  JUNCTION     0.20     1.37  1045.70     0  00:49        1.36
  P51                  JUNCTION     0.04     0.15  1042.86     0  00:51        0.12
  P52                  JUNCTION     0.11     0.32  1042.86     0  00:49        0.32
  P53                  JUNCTION     0.05     0.16  1038.73     0  00:46        0.16
  P54                  JUNCTION     0.11     0.31  1038.71     0  00:49        0.31
  P55                  JUNCTION     0.15     0.44  1037.70     0  00:49        0.44
  P57                  JUNCTION     0.13     0.37  1037.22     0  00:49        0.37
  P58                  JUNCTION     0.21     0.67  1036.33     0  00:49        0.66
  P22                  JUNCTION     0.06     0.91  1046.44     0  00:49        0.91
  P21                  JUNCTION     0.05     0.77  1046.47     0  00:47        0.73
  P16                  JUNCTION     0.09     0.24  1044.27     0  00:49        0.23
  P14                  JUNCTION     0.21     0.93  1045.08     0  00:49        0.64
  P84                  JUNCTION     0.01     0.04  1044.32     0  00:48        0.04
  P85                  JUNCTION     0.02     0.06  1044.32     0  00:49        0.06
  P86                  JUNCTION     0.04     0.11  1040.62     0  00:49        0.11
  P87                  JUNCTION     0.07     0.22  1037.28     0  00:49        0.22
  P88                  JUNCTION     0.07     0.19  1036.85     0  00:46        0.19
  P89                  JUNCTION     0.22     0.76  1036.82     0  00:49        0.75
  P59                  JUNCTION     0.03     0.09  1047.77     0  00:49        0.09
  P61                  JUNCTION     0.08     0.29  1046.88     0  00:49        0.28
  P62                  JUNCTION     0.10     0.80  1047.03     0  00:48        0.53
  P63                  JUNCTION     0.11     0.80  1046.81     0  00:47        0.56
  P64                  JUNCTION     0.16     0.53  1046.01     0  00:49        0.53
  P65                  JUNCTION     0.19     0.78  1046.29     0  00:48        0.77
  P66                  JUNCTION     0.14     0.44  1045.76     0  00:49        0.44
  P67                  JUNCTION     0.11     0.34  1044.72     0  00:49        0.33
  P68                  JUNCTION     0.04     0.12  1044.70     0  00:49        0.12
  P69                  JUNCTION     0.11     0.33  1042.07     0  00:49        0.33
  P70                  JUNCTION     0.04     0.11  1042.05     0  00:49        0.11
  P71                  JUNCTION     0.12     0.35  1038.62     0  00:49        0.35
  P72                  JUNCTION     0.04     0.13  1038.60     0  00:49        0.13
  P73                  JUNCTION     0.13     0.45  1037.66     0  00:49        0.44
  P74                  JUNCTION     0.18     0.58  1037.38     0  00:49        0.58
  P75                  JUNCTION     0.18     0.60  1037.17     0  00:49        0.60
  P76                  JUNCTION     0.20     0.69  1036.90     0  00:49        0.67
  P77                  JUNCTION     0.06     0.54  1036.96     0  00:47        0.52
  P78                  JUNCTION     0.08     0.26  1039.05     0  00:49        0.26
  P79                  JUNCTION     0.06     0.17  1038.76     0  00:49        0.17
  P80                  JUNCTION     0.05     0.16  1043.36     0  00:48        0.16
  P81                  JUNCTION     0.06     0.17  1043.39     0  00:49        0.17
  P82                  JUNCTION     0.04     0.13  1046.30     0  00:49        0.12
  P83                  JUNCTION     0.06     0.19  1046.38     0  00:48        0.19
  P60                  JUNCTION     0.06     0.19  1047.34     0  00:49        0.19
  P62A                 JUNCTION     0.08     0.64  1046.89     0  00:48        0.52
  P61A                 JUNCTION     0.06     0.28  1046.88     0  00:49        0.27
  P90                  JUNCTION     0.04     0.11  1047.24     0  00:49        0.11
  P91                  JUNCTION     0.04     0.11  1047.05     0  00:49        0.11
  P92                  JUNCTION     0.04     0.12  1046.22     0  00:49        0.12
  P93                  JUNCTION     0.07     0.22  1046.11     0  00:49        0.22
  P94                  JUNCTION     0.03     0.09  1045.83     0  00:49        0.09
  P95                  JUNCTION     0.08     0.24  1045.77     0  00:49        0.24
  P96                  JUNCTION     0.04     0.11  1045.49     0  00:46        0.11
  P97                  JUNCTION     0.08     0.24  1045.42     0  00:49        0.24
  E1                   OUTFALL      0.21     0.80  1035.80     0  00:48        0.66
  E32                  OUTFALL      0.22     0.73  1036.69     0  00:49        0.73
  E33                  OUTFALL      0.08     0.24  1044.62     0  00:49        0.24
  
  
  *******************
  Node Inflow Summary
  *******************
  
  -------------------------------------------------------------------------------------------------
                                  Maximum  Maximum                  Lateral       Total        Flow
                                  Lateral    Total  Time of Max      Inflow      Inflow     Balance
                                   Inflow   Inflow   Occurrence      Volume      Volume       Error
  Node                 Type           LPS      LPS  days hr:min    10^6 ltr    10^6 ltr     Percent
  -------------------------------------------------------------------------------------------------
  P1                   JUNCTION     59.53   119.17     0  00:46      0.0695      0.0696      -0.024
  P2                   JUNCTION     59.67   144.00     0  00:46      0.0696       0.139       0.028
  P3                   JUNCTION     59.39   186.73     0  00:45      0.0693      0.0696      -0.055
  P4                   JUNCTION     59.39   259.84     0  00:46      0.0693       0.278       0.106
  P5                   JUNCTION     73.49   103.89     0  00:45      0.0862      0.0863       0.005
  P6                   JUNCTION     59.53   291.97     0  00:49      0.0695       0.433       0.032
  P7                   JUNCTION     57.38   323.51     0  00:49      0.0678       0.501       0.007
  P8                   JUNCTION     73.23    73.23     0  00:49      0.0859      0.0859       0.002
  P9                   JUNCTION     44.54   418.55     0  00:49       0.052       0.639       0.021
  P10                  JUNCTION     44.69    44.69     0  00:49      0.0521      0.0521       0.011
  P11                  JUNCTION     44.54   494.70     0  00:48       0.052       0.743       0.014
  P12                  JUNCTION     62.99    62.99     0  00:49      0.0742      0.0742       0.010
  P13                  JUNCTION     54.30   605.13     0  00:48      0.0635        0.88       0.010
  P17                  JUNCTION     74.24    74.24     0  00:49      0.0867      0.0867      -0.009
  P18                  JUNCTION     74.24   158.25     0  00:47      0.0867       0.173       0.018
  P19                  JUNCTION     73.23    73.23     0  00:49      0.0859      0.0859      -0.002
  P20                  JUNCTION     44.54   278.12     0  00:47       0.052       0.311       0.017
  P23                  JUNCTION     28.69    32.07     0  00:46      0.0339       0.034      -0.005
  P24                  JUNCTION     28.69   342.32     0  00:49      0.0339       0.413       0.012
  P25                  JUNCTION     44.54    44.54     0  00:49       0.052       0.052       0.020
  P26                  JUNCTION     44.54   438.71     0  00:48       0.052       0.517       0.013
  P27                  JUNCTION     44.54    44.54     0  00:49       0.052       0.052       0.009
  P28                  JUNCTION     44.54   518.88     0  00:49       0.052       0.621       0.020
  P29                  JUNCTION     58.39    58.39     0  00:49      0.0686      0.0686       0.010
  P30                  JUNCTION     63.73   641.53     0  00:48      0.0751       0.764       0.014
  P31                  JUNCTION     29.19    29.19     0  00:49       0.034       0.034       1.376
  P32                  JUNCTION      0.00  1249.26     0  00:49           0        1.68       0.009
  P33                  JUNCTION     44.73    44.73     0  00:49      0.0521      0.0521       0.067
  P34                  JUNCTION      0.00  1313.84     0  00:49           0        1.73       0.008
  P35                  JUNCTION     29.82    29.82     0  00:49      0.0347      0.0347       0.054
  P36                  JUNCTION      0.00  1339.72     0  00:49           0        1.76       0.008
  P37                  JUNCTION     61.11    61.11     0  00:49      0.0712      0.0712       0.003
  P38                  JUNCTION      0.00  1383.92     0  00:49           0        1.84       0.001
  P39                  JUNCTION     29.73    42.60     0  00:47      0.0347      0.0347      -0.094
  P40                  JUNCTION     59.46   110.80     0  00:48      0.0693       0.104      -0.030
  P41                  JUNCTION     72.91    72.91     0  00:49      0.0859      0.0859      -0.021
  P42                  JUNCTION     73.42   248.15     0  00:48       0.086       0.276       0.103
  P43                  JUNCTION     43.69    61.90     0  00:46      0.0513      0.0513       0.016
  P44                  JUNCTION     43.69   294.24     0  00:45      0.0513       0.378       0.033
  P45                  JUNCTION     59.46    65.70     0  00:46      0.0693      0.0694      -0.015
  P46                  JUNCTION     59.46   380.76     0  00:46      0.0693       0.517       0.001
  P47                  JUNCTION     73.42    73.42     0  00:49       0.086       0.086       0.018
  P48                  JUNCTION     73.42   451.82     0  00:49       0.086       0.689       0.016
  P49                  JUNCTION     29.17    43.57     0  00:45       0.034      0.0341      -0.028
  P50                  JUNCTION     29.18   495.08     0  00:49       0.034       0.757       0.001
  P51                  JUNCTION     44.70    44.70     0  00:49      0.0521      0.0521       0.018
  P52                  JUNCTION     44.70   581.90     0  00:49      0.0521       0.861       0.011
  P53                  JUNCTION     92.42    92.42     0  00:49       0.108       0.108       0.003
  P54                  JUNCTION     59.63   732.70     0  00:49      0.0694        1.04       0.006
  P55                  JUNCTION     30.91   762.91     0  00:49       0.036        1.07       0.007
  P57                  JUNCTION      0.00   762.33     0  00:49           0        1.07       0.042
  P58                  JUNCTION      0.00  2128.37     0  00:49           0        2.91       0.005
  P22                  JUNCTION      0.00    40.91     0  00:46           0      0.0343      -0.062
  P21                  JUNCTION     28.69    46.13     0  00:46      0.0339       0.034       0.008
  P16                  JUNCTION      0.00   587.64     0  00:49           0        0.88       0.011
  P14                  JUNCTION      0.00   590.18     0  00:49           0        0.88       0.022
  P84                  JUNCTION      0.00     0.39     0  00:44           0    4.99e-05       0.246
  P85                  JUNCTION     33.78    33.82     0  00:48      0.0395      0.0396       0.017
  P86                  JUNCTION     68.98   102.77     0  00:49      0.0803        0.12      -0.001
  P87                  JUNCTION     33.88   136.56     0  00:49      0.0394       0.159       0.016
  P88                  JUNCTION      0.00   136.34     0  00:49           0       0.159       0.147
  P89                  JUNCTION      0.00  1567.06     0  00:49           0        1.94       0.001
  P59                  JUNCTION     64.94    64.94     0  00:49      0.0758      0.0758       0.003
  P61                  JUNCTION     41.95   138.71     0  00:49      0.0491       0.163       0.021
  P62                  JUNCTION     64.39   200.84     0  00:48      0.0756       0.239       0.020
  P63                  JUNCTION     28.96   221.83     0  00:47      0.0342       0.273       0.006
  P64                  JUNCTION     44.97   674.10     0  00:49      0.0524       0.849       0.002
  P65                  JUNCTION    407.52   407.52     0  00:49       0.524       0.524       0.043
  P66                  JUNCTION     29.98   708.72     0  00:49      0.0349       0.884       0.025
  P67                  JUNCTION     73.94   842.99     0  00:49      0.0866        1.06       0.025
  P68                  JUNCTION     73.68    73.68     0  00:49      0.0863      0.0863       0.004
  P69                  JUNCTION     44.53   940.68     0  00:49      0.0518        1.18       0.020
  P70                  JUNCTION     60.15    60.15     0  00:49        0.07        0.07      -0.000
  P71                  JUNCTION     60.21  1068.55     0  00:49        0.07        1.34       0.011
  P72                  JUNCTION     77.12    77.12     0  00:49      0.0898      0.0898       0.001
  P73                  JUNCTION     32.27  1098.64     0  00:49      0.0376        1.38       0.004
  P74                  JUNCTION      0.00  1099.41     0  00:49           0        1.38       0.012
  P75                  JUNCTION      0.00  1101.22     0  00:49           0        1.37       0.020
  P76                  JUNCTION      0.00  1163.87     0  00:49           0        1.41       0.014
  P77                  JUNCTION     30.03    87.05     0  00:46       0.035      0.0401      -0.133
  P78                  JUNCTION     44.73   268.22     0  00:48      0.0521       0.313       0.007
  P79                  JUNCTION     47.96   315.96     0  00:49      0.0558       0.369      -0.004
  P80                  JUNCTION     59.78   224.81     0  00:48      0.0696       0.261       0.004
  P81                  JUNCTION     47.44    47.44     0  00:49      0.0552      0.0552       0.005
  P82                  JUNCTION     59.17   124.75     0  00:48       0.069       0.136      -0.012
  P83                  JUNCTION     57.35    57.35     0  00:49      0.0672      0.0672       0.055
  P60                  JUNCTION     32.23    97.16     0  00:49      0.0382       0.114       0.026
  P62A                 JUNCTION      0.00    19.19     0  00:48           0    0.000633      -1.603
  P61A                 JUNCTION      0.00     3.73     0  00:48           0    0.000388       0.275
  P90                  JUNCTION     60.46    60.46     0  00:49      0.0705      0.0705       0.007
  P91                  JUNCTION      0.00    60.46     0  00:49           0      0.0705       0.001
  P92                  JUNCTION     63.69    63.69     0  00:49      0.0741      0.0741       0.004
  P93                  JUNCTION      0.00   124.08     0  00:49           0       0.145       0.018
  P94                  JUNCTION     41.54    41.54     0  00:49      0.0485      0.0485       0.005
  P95                  JUNCTION      0.00   165.37     0  00:49           0       0.193       0.021
  P96                  JUNCTION     55.31    55.31     0  00:49      0.0644      0.0644       0.004
  P97                  JUNCTION      0.00   220.44     0  00:49           0       0.257       0.011
  E1                   OUTFALL       0.00  2115.71     0  00:49           0        2.91       0.000
  E32                  OUTFALL       0.00  1565.16     0  00:49           0        1.94       0.000
  E33                  OUTFALL       0.00   220.29     0  00:49           0       0.257       0.000
  
  
  **********************
  Node Surcharge Summary
  **********************
  
  Surcharging occurs when water rises above the top of the highest conduit.
  ---------------------------------------------------------------------
                                               Max. Height   Min. Depth
                                   Hours       Above Crown    Below Rim
  Node                 Type      Surcharged         Meters       Meters
  ---------------------------------------------------------------------
  P1                   JUNCTION        0.17          1.009        0.000
  P2                   JUNCTION        0.18          1.176        0.000
  P3                   JUNCTION        0.19          1.432        0.000
  P4                   JUNCTION        0.20          1.600        0.000
  P5                   JUNCTION        0.21          1.598        0.000
  P6                   JUNCTION        0.22          1.765        0.000
  P7                   JUNCTION        0.23          1.641        0.000
  P8                   JUNCTION        0.21          0.934        0.000
  P9                   JUNCTION        0.25          1.103        0.000
  P12                  JUNCTION        0.03          0.373        0.457
  P13                  JUNCTION        0.02          0.286        0.314
  P17                  JUNCTION        0.05          0.604        0.000
  P18                  JUNCTION        0.06          0.618        0.000
  P19                  JUNCTION        0.05          0.429        0.171
  P20                  JUNCTION        0.10          0.883        0.000
  P23                  JUNCTION        0.06          0.380        0.220
  P24                  JUNCTION        0.14          0.778        0.027
  P31                  JUNCTION        1.71          0.154        1.246
  P39                  JUNCTION        0.08          0.568        0.032
  P40                  JUNCTION        0.11          0.602        0.000
  P41                  JUNCTION        0.16          0.950        0.000
  P42                  JUNCTION        0.18          1.519        0.000
  P43                  JUNCTION        0.16          1.201        0.000
  P44                  JUNCTION        0.17          1.367        0.000
  P45                  JUNCTION        0.16          1.191        0.000
  P46                  JUNCTION        0.17          1.357        0.000
  P47                  JUNCTION        0.16          1.009        0.000
  P48                  JUNCTION        0.17          1.178        0.000
  P49                  JUNCTION        0.16          0.879        0.081
  P50                  JUNCTION        0.18          0.966        0.000
  P22                  JUNCTION        0.08          0.506        0.000
  P21                  JUNCTION        0.05          0.370        0.105
  P14                  JUNCTION        0.04          0.326        0.720
  P62                  JUNCTION        0.03          0.403        0.197
  P63                  JUNCTION        0.05          0.400        0.400
  P65                  JUNCTION        0.18          0.377        0.393
  P62A                 JUNCTION        0.03          0.240        0.000
  
  
  *********************
  Node Flooding Summary
  *********************
  
  Flooding refers to all water that overflows a node, whether it ponds or not.
  --------------------------------------------------------------------------
                                                             Total   Maximum
                                 Maximum   Time of Max       Flood    Ponded
                        Hours       Rate    Occurrence      Volume     Depth
  Node                 Flooded       LPS   days hr:min    10^6 ltr    Meters
  --------------------------------------------------------------------------
  P1                      0.12     38.32      0  00:46       0.001     0.409
  P2                      0.15     76.99      0  00:46       0.003     0.576
  P3                      0.17    177.31      0  00:45       0.002     0.852
  P4                      0.19    148.75      0  00:45       0.010     1.020
  P5                      0.19     57.69      0  00:45       0.001     0.998
  P6                      0.20     99.67      0  00:45       0.008     1.165
  P7                      0.20     72.62      0  00:45       0.006     1.041
  P8                      0.14      7.65      0  00:47       0.000     0.334
  P9                      0.18     38.37      0  00:47       0.006     0.503
  P17                     0.01     14.12      0  00:46       0.000     0.004
  P18                     0.02     22.70      0  00:46       0.000     0.018
  P20                     0.05     56.44      0  00:47       0.002     0.283
  P40                     0.01     17.70      0  00:47       0.000     0.002
  P41                     0.07     12.80      0  00:48       0.000     0.275
  P42                     0.16     84.72      0  00:48       0.008     0.844
  P43                     0.14     29.80      0  00:46       0.001     0.601
  P44                     0.16     48.47      0  00:46       0.007     0.767
  P45                     0.14     58.47      0  00:46       0.001     0.591
  P46                     0.16     86.18      0  00:46       0.007     0.757
  P47                     0.12     50.95      0  00:46       0.001     0.409
  P48                     0.15     57.24      0  00:46       0.004     0.578
  P50                     0.01      2.02      0  00:49       0.000     0.006
  P22                     0.02      4.42      0  00:47       0.000     0.031
  P62A                    0.01     11.47      0  00:48       0.000     0.000
  
  
  ***********************
  Outfall Loading Summary
  ***********************
  
  -----------------------------------------------------------
                         Flow       Avg       Max       Total
                         Freq      Flow      Flow      Volume
  Outfall Node           Pcnt       LPS       LPS    10^6 ltr
  -----------------------------------------------------------
  E1                    95.76    444.03   2115.71       2.908
  E32                   95.95    295.20   1565.16       1.937
  E33                   95.75     39.30    220.29       0.257
  -----------------------------------------------------------
  System                95.82    778.52   3899.04       5.103
  
  
  
  ********************
  Link Flow Summary
  ********************
  
  -----------------------------------------------------------------------------
                                 Maximum  Time of Max   Maximum    Max/    Max/
                                  |Flow|   Occurrence   |Veloc|    Full    Full
  Link                 Type          LPS  days hr:min     m/sec    Flow   Depth
  -----------------------------------------------------------------------------
  G1                   CONDUIT     88.17     0  00:46      1.16    0.27    1.00
  G2                   CONDUIT    148.95     0  00:46      1.25    0.71    1.00
  G3                   CONDUIT    135.61     0  00:45      1.13    0.46    1.00
  G4                   CONDUIT    172.15     0  00:51      1.44    0.82    1.00
  G5                   CONDUIT     73.56     0  00:45      0.75    0.23    1.00
  G6                   CONDUIT    269.02     0  00:49      2.14    1.25    1.00
  G7                   CONDUIT    314.33     0  00:50      2.50    1.52    1.00
  G8                   CONDUIT     75.83     0  00:44      0.79    0.23    1.00
  G38                  CONDUIT     51.70     0  00:48      0.99    0.16    1.00
  G39                  CONDUIT    103.72     0  00:48      0.92    0.34    1.00
  G40                  CONDUIT    123.27     0  00:55      1.27    0.21    1.00
  G41                  CONDUIT    245.44     0  00:55      1.95    1.91    1.00
  G42                  CONDUIT     68.17     0  00:55      0.63    0.21    1.00
  G43                  CONDUIT    290.97     0  00:55      2.32    1.23    1.00
  G44                  CONDUIT     97.98     0  00:46      0.81    0.30    1.00
  G45                  CONDUIT    351.65     0  00:55      2.80    1.19    1.00
  G46                  CONDUIT     92.03     0  00:46      0.92    0.28    1.00
  G47                  CONDUIT    446.62     0  00:50      3.55    1.13    1.00
  G48                  CONDUIT     32.90     0  00:45      0.39    0.10    1.00
  G49                  CONDUIT    493.05     0  00:49      4.17    1.22    0.90
  G50                  CONDUIT     44.55     0  00:48      0.79    0.14    0.56
  G51                  CONDUIT    581.13     0  00:49      5.54    0.97    0.78
  G52                  CONDUIT     92.43     0  00:49      1.28    0.28    0.58
  G53                  CONDUIT    732.19     0  00:49      3.95    0.52    0.62
  G54                  CONDUIT    762.33     0  00:49      3.74    0.89    0.68
  G56                  CONDUIT    761.95     0  00:49      3.94    0.70    0.72
  G16                  CONDUIT     85.87     0  00:47      1.19    0.27    1.00
  G17                  CONDUIT    164.48     0  00:47      1.32    0.79    1.00
  G18                  CONDUIT     90.46     0  00:50      0.96    0.17    1.00
  G19                  CONDUIT    262.61     0  00:49      2.09    1.24    1.00
  G20                  CONDUIT     40.91     0  00:46      1.49    0.13    1.00
  G21                  CONDUIT     40.80     0  00:46      0.35    0.12    1.00
  G22                  CONDUIT     40.18     0  00:46      0.40    0.08    1.00
  G23                  CONDUIT    342.14     0  00:49      2.74    1.64    0.98
  G24                  CONDUIT     54.96     0  00:47      0.68    0.18    0.77
  G25                  CONDUIT    431.29     0  00:49      2.16    0.70    0.67
  G26                  CONDUIT     44.53     0  00:48      0.38    0.28    0.98
  G27                  CONDUIT    517.43     0  00:49      2.56    0.84    0.67
  G28                  CONDUIT     62.48     0  00:48      0.77    0.19    0.74
  G9                   CONDUIT    403.65     0  00:49      3.21    1.94    1.00
  G10                  CONDUIT     68.30     0  00:47      0.69    0.21    0.85
  G11                  CONDUIT    487.52     0  00:48      2.10    0.79    0.86
  G12                  CONDUIT     75.53     0  00:45      0.75    0.23    1.00
  G13                  CONDUIT    590.18     0  00:49      2.13    0.93    1.00
  G14                  CONDUIT    587.64     0  00:49      2.85    1.84    0.70
  G29                  CONDUIT    637.89     0  00:49      3.33    0.74    0.64
  G15                  CONDUIT    583.79     0  00:49      3.50    0.33    0.60
  G30                  CONDUIT     29.23     0  00:48      0.39    0.05    0.58
  G31                  CONDUIT   1252.87     0  00:49      4.73    0.66    0.53
  G33                  CONDUIT   1306.18     0  00:49      6.44    0.41    0.43
  G34                  CONDUIT     48.29     0  00:48      0.71    0.15    0.63
  G35                  CONDUIT   1332.72     0  00:49      6.83    0.34    0.41
  G36                  CONDUIT     62.13     0  00:48      1.01    0.19    0.61
  G37                  CONDUIT   1378.97     0  00:49      6.21    0.38    0.48
  G32                  CONDUIT     69.85     0  00:48      0.87    0.22    0.76
  G57                  CONDUIT   2115.71     0  00:49      4.79    1.00    0.92
  G58                  CONDUIT     64.93     0  00:49      1.63    0.12    0.36
  G59                  CONDUIT     96.83     0  00:49      1.63    0.46    0.48
  G61                  CONDUIT    139.92     0  00:49      1.45    0.66    0.86
  G63                  CONDUIT    194.28     0  00:49      1.77    0.95    1.00
  G64                  CONDUIT    221.74     0  00:49      1.76    1.03    1.00
  G66                  CONDUIT    407.39     0  00:49      3.24    3.04    1.00
  G65                  CONDUIT    678.90     0  00:49      2.78    1.07    0.81
  G67                  CONDUIT    701.99     0  00:49      3.65    0.87    0.65
  G68                  CONDUIT     73.66     0  00:49      1.07    0.21    0.57
  G69                  CONDUIT    843.47     0  00:49      5.27    0.60    0.55
  G70                  CONDUIT     60.14     0  00:49      1.06    0.17    0.55
  G71                  CONDUIT    939.24     0  00:49      5.67    0.58    0.57
  G72                  CONDUIT     77.11     0  00:49      1.15    0.22    0.60
  G73                  CONDUIT   1067.79     0  00:49      5.37    0.65    0.67
  G74                  CONDUIT   1099.41     0  00:49      4.28    0.79    0.85
  G75                  CONDUIT   1101.22     0  00:49      2.80    0.84    0.74
  G76                  CONDUIT   1102.21     0  00:49      2.60    0.83    0.81
  G78                  CONDUIT   1138.11     0  00:49      2.43    0.87    0.90
  G77                  CONDUIT    110.10     0  00:46      0.58    0.11    0.95
  G60                  CONDUIT      4.64     0  00:50      0.10    0.05    0.71
  G62                  CONDUIT     19.19     0  00:48      0.15    0.17    1.00
  G79                  CONDUIT     65.68     0  00:49      1.47    0.59    0.39
  G80                  CONDUIT    117.63     0  00:49      2.94    0.21    0.36
  G81                  CONDUIT     47.43     0  00:49      1.04    0.43    0.41
  G82                  CONDUIT    223.49     0  00:48      3.35    0.33    0.52
  G83                  CONDUIT    268.01     0  00:49      3.84    0.76    0.54
  G84                  CONDUIT    315.92     0  00:49      3.28    0.39    0.72
  G85                  CONDUIT      0.39     0  00:44      0.06    0.00    0.13
  G86                  CONDUIT     33.79     0  00:49      1.62    0.06    0.22
  G87                  CONDUIT    102.68     0  00:49      2.05    0.17    0.42
  G88                  CONDUIT    136.34     0  00:49      1.89    0.60    0.56
  G89                  CONDUIT    136.30     0  00:49      1.63    0.22    0.48
  G90                  CONDUIT     60.46     0  00:49      2.12    0.17    0.28
  G91                  CONDUIT     60.41     0  00:49      1.24    0.16    0.41
  G92                  CONDUIT     63.68     0  00:49      1.28    0.18    0.43
  G94                  CONDUIT     41.54     0  00:49      0.89    0.12    0.41
  G93                  CONDUIT    123.91     0  00:49      1.67    0.58    0.57
  G95                  CONDUIT    165.22     0  00:49      2.12    0.67    0.59
  G96                  CONDUIT     55.30     0  00:49      1.18    0.16    0.43
  G152                 CONDUIT   1565.16     0  00:49      3.22    1.18    0.93
  G153                 CONDUIT    220.29     0  00:49      2.84    0.66    0.59
  
  
  ***************************
  Flow Classification Summary
  ***************************
  
  -------------------------------------------------------------------------------------
                      Adjusted    ---------- Fraction of Time in Flow Class ---------- 
                       /Actual         Up    Down  Sub   Sup   Up    Down  Norm  Inlet 
  Conduit               Length    Dry  Dry   Dry   Crit  Crit  Crit  Crit  Ltd   Ctrl  
  -------------------------------------------------------------------------------------
  G1                      1.00   0.04  0.00  0.00  0.28  0.68  0.00  0.00  0.84  0.00
  G2                      1.00   0.04  0.00  0.00  0.93  0.03  0.00  0.00  0.82  0.00
  G3                      1.00   0.04  0.00  0.00  0.94  0.02  0.00  0.00  0.83  0.00
  G4                      1.00   0.04  0.00  0.00  0.27  0.69  0.00  0.00  0.81  0.00
  G5                      1.00   0.04  0.00  0.00  0.94  0.02  0.00  0.00  0.83  0.00
  G6                      1.00   0.04  0.00  0.00  0.14  0.82  0.00  0.00  0.58  0.00
  G7                      1.00   0.04  0.00  0.00  0.18  0.78  0.00  0.00  0.71  0.00
  G8                      1.00   0.04  0.00  0.00  0.93  0.03  0.00  0.00  0.77  0.00
  G38                     1.00   0.04  0.00  0.00  0.31  0.66  0.00  0.00  0.88  0.00
  G39                     1.00   0.04  0.00  0.00  0.94  0.02  0.00  0.00  0.87  0.00
  G40                     1.00   0.04  0.00  0.00  0.94  0.03  0.00  0.00  0.87  0.00
  G41                     1.00   0.04  0.00  0.00  0.96  0.01  0.00  0.00  0.00  0.00
  G42                     1.00   0.04  0.00  0.00  0.94  0.02  0.00  0.00  0.85  0.00
  G43                     1.00   0.04  0.00  0.00  0.11  0.85  0.00  0.00  0.77  0.00
  G44                     1.00   0.04  0.00  0.00  0.93  0.03  0.00  0.00  0.85  0.00
  G45                     1.00   0.04  0.00  0.00  0.10  0.87  0.00  0.00  0.47  0.00
  G46                     1.00   0.04  0.00  0.00  0.93  0.03  0.00  0.00  0.85  0.00
  G47                     1.00   0.04  0.00  0.00  0.09  0.87  0.00  0.00  0.78  0.00
  G48                     1.00   0.04  0.00  0.00  0.95  0.02  0.00  0.00  0.83  0.00
  G49                     1.00   0.04  0.00  0.00  0.00  0.96  0.00  0.00  0.02  0.00
  G50                     1.00   0.04  0.00  0.00  0.93  0.03  0.00  0.00  0.87  0.00
  G51                     1.00   0.04  0.00  0.00  0.00  0.96  0.00  0.00  0.85  0.00
  G52                     1.00   0.04  0.00  0.00  0.90  0.06  0.00  0.00  0.89  0.00
  G53                     1.00   0.04  0.00  0.00  0.00  0.96  0.00  0.00  0.95  0.00
  G54                     1.00   0.04  0.00  0.00  0.00  0.96  0.00  0.00  0.13  0.00
  G56                     1.00   0.04  0.00  0.00  0.00  0.09  0.00  0.87  0.08  0.00
  G16                     1.00   0.04  0.00  0.00  0.22  0.74  0.00  0.00  0.84  0.00
  G17                     1.00   0.04  0.00  0.00  0.39  0.57  0.00  0.00  0.88  0.00
  G18                     1.00   0.04  0.00  0.00  0.94  0.03  0.00  0.00  0.91  0.00
  G19                     1.00   0.04  0.00  0.00  0.23  0.74  0.00  0.00  0.66  0.00
  G20                     1.00   0.04  0.00  0.00  0.08  0.89  0.00  0.00  0.10  0.00
  G21                     1.00   0.04  0.00  0.00  0.96  0.00  0.00  0.00  0.88  0.00
  G22                     1.00   0.04  0.00  0.00  0.94  0.02  0.00  0.00  0.91  0.00
  G23                     1.00   0.04  0.00  0.00  0.00  0.00  0.00  0.96  0.00  0.00
  G24                     1.00   0.04  0.00  0.00  0.94  0.02  0.00  0.00  0.86  0.00
  G25                     1.00   0.04  0.00  0.00  0.01  0.96  0.00  0.00  0.76  0.00
  G26                     1.00   0.04  0.00  0.00  0.96  0.01  0.00  0.00  0.16  0.00
  G27                     1.00   0.04  0.00  0.00  0.01  0.95  0.00  0.00  0.23  0.00
  G28                     1.00   0.04  0.00  0.00  0.94  0.03  0.00  0.00  0.89  0.00
  G9                      1.00   0.04  0.00  0.00  0.00  0.00  0.00  0.96  0.00  0.00
  G10                     1.00   0.04  0.00  0.00  0.94  0.02  0.00  0.00  0.79  0.00
  G11                     1.00   0.04  0.00  0.00  0.06  0.91  0.00  0.00  0.70  0.00
  G12                     1.00   0.04  0.00  0.00  0.94  0.02  0.00  0.00  0.78  0.00
  G13                     1.00   0.04  0.00  0.00  0.24  0.72  0.00  0.00  0.17  0.00
  G14                     1.00   0.04  0.00  0.00  0.02  0.94  0.00  0.00  0.00  0.00
  G29                     1.00   0.04  0.00  0.00  0.00  0.00  0.00  0.96  0.00  0.00
  G15                     1.00   0.04  0.01  0.00  0.02  0.93  0.00  0.00  0.96  0.00
  G30                     1.00   0.04  0.06  0.00  0.00  0.00  0.90  0.00  0.00  0.00
  G31                     1.00   0.04  0.00  0.00  0.02  0.95  0.00  0.00  0.02  0.00
  G33                     1.00   0.04  0.00  0.00  0.00  0.96  0.00  0.00  0.00  0.00
  G34                     1.00   0.04  0.00  0.00  0.92  0.04  0.00  0.00  0.85  0.00
  G35                     1.00   0.04  0.00  0.00  0.00  0.96  0.00  0.00  0.93  0.00
  G36                     1.00   0.04  0.00  0.00  0.91  0.05  0.00  0.00  0.88  0.00
  G37                     1.00   0.04  0.00  0.00  0.00  0.08  0.00  0.88  0.07  0.00
  G32                     1.00   0.04  0.00  0.00  0.92  0.04  0.00  0.00  0.83  0.00
  G57                     1.00   0.04  0.00  0.00  0.00  0.96  0.00  0.00  0.42  0.00
  G58                     1.00   0.04  0.00  0.00  0.11  0.86  0.00  0.00  0.95  0.00
  G59                     1.00   0.04  0.00  0.00  0.00  0.00  0.00  0.96  0.00  0.00
  G61                     1.00   0.04  0.00  0.00  0.19  0.77  0.00  0.00  0.90  0.00
  G63                     1.00   0.04  0.00  0.00  0.06  0.91  0.00  0.00  0.60  0.00
  G64                     1.00   0.04  0.00  0.00  0.86  0.10  0.00  0.00  0.91  0.00
  G66                     1.00   0.04  0.00  0.00  0.27  0.69  0.00  0.00  0.04  0.00
  G65                     1.00   0.04  0.00  0.00  0.01  0.96  0.00  0.00  0.48  0.00
  G67                     1.00   0.04  0.00  0.00  0.01  0.95  0.00  0.00  0.02  0.00
  G68                     1.00   0.04  0.00  0.00  0.90  0.06  0.00  0.00  0.94  0.00
  G69                     1.00   0.04  0.00  0.00  0.00  0.96  0.00  0.00  0.09  0.00
  G70                     1.00   0.04  0.00  0.00  0.91  0.06  0.00  0.00  0.94  0.00
  G71                     1.00   0.04  0.00  0.00  0.00  0.96  0.00  0.00  0.95  0.00
  G72                     1.00   0.04  0.00  0.00  0.90  0.06  0.00  0.00  0.94  0.00
  G73                     1.00   0.04  0.00  0.00  0.00  0.96  0.00  0.00  0.94  0.00
  G74                     1.00   0.04  0.00  0.00  0.00  0.96  0.00  0.00  0.80  0.00
  G75                     1.00   0.04  0.00  0.00  0.00  0.96  0.00  0.00  0.53  0.00
  G76                     1.00   0.04  0.00  0.00  0.02  0.94  0.00  0.00  0.53  0.00
  G78                     1.00   0.04  0.00  0.00  0.10  0.86  0.00  0.00  0.21  0.00
  G77                     1.00   0.04  0.00  0.00  0.94  0.02  0.00  0.00  0.70  0.00
  G60                     1.00   0.04  0.02  0.00  0.95  0.00  0.00  0.00  0.06  0.00
  G62                     1.00   0.04  0.02  0.00  0.94  0.00  0.00  0.00  0.07  0.00
  G79                     1.00   0.04  0.00  0.00  0.17  0.79  0.00  0.00  0.02  0.00
  G80                     1.00   0.04  0.00  0.00  0.00  0.96  0.00  0.00  0.96  0.00
  G81                     1.00   0.04  0.00  0.00  0.95  0.01  0.00  0.00  0.17  0.00
  G82                     1.00   0.04  0.00  0.00  0.00  0.96  0.00  0.00  0.96  0.00
  G83                     1.00   0.04  0.00  0.00  0.00  0.96  0.00  0.00  0.09  0.00
  G84                     1.00   0.04  0.00  0.00  0.51  0.45  0.00  0.00  0.95  0.00
  G85                     1.00   0.04  0.34  0.00  0.62  0.00  0.00  0.00  0.39  0.00
  G86                     1.00   0.04  0.00  0.00  0.01  0.96  0.00  0.00  0.96  0.00
  G87                     1.00   0.04  0.00  0.00  0.00  0.96  0.00  0.00  0.96  0.00
  G88                     1.00   0.04  0.00  0.00  0.00  0.00  0.00  0.96  0.00  0.00
  G89                     1.00   0.04  0.00  0.00  0.05  0.04  0.00  0.88  0.06  0.00
  G90                     1.00   0.04  0.00  0.00  0.00  0.96  0.00  0.00  0.23  0.00
  G91                     1.00   0.04  0.00  0.00  0.16  0.80  0.00  0.00  0.96  0.00
  G92                     1.00   0.04  0.00  0.00  0.17  0.79  0.00  0.00  0.89  0.00
  G94                     1.00   0.04  0.00  0.00  0.93  0.03  0.00  0.00  0.94  0.00
  G93                     1.00   0.04  0.00  0.00  0.06  0.90  0.00  0.00  0.83  0.00
  G95                     1.00   0.04  0.00  0.00  0.02  0.95  0.00  0.00  0.39  0.00
  G96                     1.00   0.04  0.00  0.00  0.76  0.20  0.00  0.00  0.91  0.00
  G152                    1.00   0.04  0.00  0.00  0.03  0.93  0.00  0.00  0.43  0.00
  G153                    1.00   0.04  0.00  0.00  0.00  0.96  0.00  0.00  0.34  0.00
  
  
  *************************
  Conduit Surcharge Summary
  *************************
  
  ----------------------------------------------------------------------------
                                                           Hours        Hours 
                         --------- Hours Full --------   Above Full   Capacity
  Conduit                Both Ends  Upstream  Dnstream   Normal Flow   Limited
  ----------------------------------------------------------------------------
  G1                          0.17      0.17      0.18      0.01         0.01
  G2                          0.18      0.18      0.20      0.01         0.01
  G3                          0.19      0.19      0.20      0.01         0.01
  G4                          0.20      0.20      0.22      0.01         0.01
  G5                          0.21      0.21      0.22      0.01         0.01
  G6                          0.22      0.22      0.23      0.18         0.19
  G7                          0.23      0.23      0.25      0.22         0.22
  G8                          0.21      0.21      0.25      0.01         0.01
  G38                         0.08      0.08      0.11      0.01         0.01
  G39                         0.11      0.11      0.18      0.01         0.01
  G40                         0.16      0.16      0.18      0.01         0.01
  G41                         0.17      0.18      0.17      0.19         0.17
  G42                         0.16      0.16      0.17      0.01         0.01
  G43                         0.17      0.17      0.17      0.09         0.08
  G44                         0.16      0.16      0.17      0.01         0.01
  G45                         0.17      0.17      0.17      0.18         0.16
  G46                         0.16      0.16      0.17      0.01         0.01
  G47                         0.17      0.17      0.18      0.16         0.16
  G48                         0.16      0.16      0.18      0.01         0.01
  G49                         0.01      0.18      0.01      0.18         0.01
  G16                         0.05      0.05      0.06      0.01         0.01
  G17                         0.06      0.06      0.10      0.01         0.01
  G18                         0.05      0.05      0.10      0.01         0.01
  G19                         0.10      0.10      0.14      0.07         0.06
  G20                         0.05      0.05      0.08      0.01         0.01
  G21                         0.08      0.08      0.14      0.01         0.01
  G22                         0.06      0.06      0.14      0.01         0.01
  G23                         0.01      0.14      0.01      0.16         0.01
  G26                         0.01      0.01      0.04      0.01         0.01
  G9                          0.16      0.25      0.16      0.27         0.16
  G10                         0.01      0.01      0.04      0.01         0.01
  G11                         0.01      0.01      0.02      0.01         0.01
  G12                         0.03      0.03      0.18      0.01         0.01
  G13                         0.02      0.02      0.04      0.01         0.01
  G14                         0.01      0.04      0.01      0.23         0.01
  G30                         0.01      0.01      1.71      0.01         0.01
  G57                         0.01      0.01      0.01      0.01         0.01
  G61                         0.01      0.01      0.03      0.01         0.01
  G63                         0.03      0.03      0.05      0.01         0.01
  G64                         0.05      0.05      0.11      0.02         0.02
  G66                         0.11      0.18      0.11      0.32         0.11
  G65                         0.01      0.01      0.01      0.03         0.01
  G77                         0.01      0.01      0.06      0.01         0.01
  G62                         0.03      0.03      0.03      0.01         0.01
  G84                         0.01      0.01      0.21      0.01         0.01
  G152                        0.01      0.01      0.01      0.06         0.01
  

  Analysis begun on:  Thu Aug 21 12:32:46 2025
  Analysis ended on:  Thu Aug 21 12:32:53 2025
  Total elapsed time: 00:00:07