
  EPA STORM WATER MANAGEMENT MODEL - VERSION 5.2 (Build 5.2.4)
  PYSWMM TOOLKIT API - VERSION v1.0 (2023-11-27)
  ------------------------------------------------------------

  test 
  
  ****************
  Analysis Options
  ****************
  Flow Units ............... LPS
  Process Models:
    Rainfall/Runoff ........ YES
    RDII ................... NO
    Snowmelt ............... NO
    Groundwater ............ NO
    Flow Routing ........... YES
    Ponding Allowed ........ YES
    Water Quality .......... NO
  Infiltration Method ...... CURVE_NUMBER
  Flow Routing Method ...... DYNWAVE
  Surcharge Method ......... EXTRAN
  Starting Date ............ 11/13/2024 00:00:00
  Ending Date .............. 11/13/2024 03:25:00
  Antecedent Dry Days ...... 7.0
  Report Time Step ......... 00:05:00
  Wet Time Step ............ 00:01:00
  Dry Time Step ............ 01:00:00
  Routing Time Step ........ 0.60 sec
  Variable Time Step ....... YES
  Maximum Trials ........... 8
  Number of Threads ........ 1
  Head Tolerance ........... 0.001500 m
  
  
  **************************        Volume         Depth
  Runoff Quantity Continuity     hectare-m            mm
  **************************     ---------       -------
  Total Precipitation ......         0.646        69.660
  Evaporation Loss .........         0.000         0.000
  Infiltration Loss ........         0.054         5.864
  Surface Runoff ...........         0.581        62.650
  Final Storage ............         0.006         0.701
  Continuity Error (%) .....         0.639
  
  
  **************************        Volume        Volume
  Flow Routing Continuity        hectare-m      10^6 ltr
  **************************     ---------     ---------
  Dry Weather Inflow .......         0.000         0.000
  Wet Weather Inflow .......         0.581         5.806
  Groundwater Inflow .......         0.000         0.000
  RDII Inflow ..............         0.000         0.000
  External Inflow ..........         0.000         0.000
  External Outflow .........         0.580         5.801
  Flooding Loss ............         0.000         0.000
  Evaporation Loss .........         0.000         0.000
  Exfiltration Loss ........         0.000         0.000
  Initial Stored Volume ....         0.000         0.000
  Final Stored Volume ......         0.001         0.006
  Continuity Error (%) .....        -0.007
  
  
  *************************
  Highest Continuity Errors
  *************************
  Node P31 (1.18%)
  
  
  ***************************
  Time-Step Critical Elements
  ***************************
  None
  
  
  ********************************
  Highest Flow Instability Indexes
  ********************************
  Link G66 (10)
  Link G79 (3)
  Link G65 (3)
  Link G8 (2)
  Link G40 (2)
  
  
  *********************************
  Most Frequent Nonconverging Nodes
  *********************************
  Node E1 (1.46%)
  Node E32 (1.46%)
  Node E33 (1.46%)
  Node P1 (0.22%)
  Node P2 (0.20%)
  
  
  *************************
  Routing Time Step Summary
  *************************
  Minimum Time Step           :     0.40 sec
  Average Time Step           :     0.50 sec
  Maximum Time Step           :     0.60 sec
  % of Time in Steady State   :     0.00
  Average Iterations per Step :     2.15
  % of Steps Not Converging   :     1.46
  Time Step Frequencies       :
      0.600 -  0.579 sec      :    99.65 %
      0.579 -  0.558 sec      :     0.03 %
      0.558 -  0.538 sec      :     0.02 %
      0.538 -  0.519 sec      :     0.01 %
      0.519 -  0.500 sec      :     0.29 %
  
  
  ***************************
  Subcatchment Runoff Summary
  ***************************
  
  ------------------------------------------------------------------------------------------------------------------------------
                            Total      Total      Total      Total     Imperv       Perv      Total       Total     Peak  Runoff
                           Precip      Runon       Evap      Infil     Runoff     Runoff     Runoff      Runoff   Runoff   Coeff
  Subcatchment                 mm         mm         mm         mm         mm         mm         mm    10^6 ltr      LPS
  ------------------------------------------------------------------------------------------------------------------------------
  B140                      69.66       0.00       0.00       4.57      58.12       6.58      64.04        0.04    30.56   0.919
  B139                      69.66       0.00       0.00       5.04      56.93       7.25      63.46        0.04    29.96   0.911
  B141                      69.66       0.00       0.00       5.75      55.14       8.30      62.61        0.02    14.32   0.899
  B142                      69.66       0.00       0.00       5.75      55.14       8.30      62.61        0.02    14.32   0.899
  B144                      69.66       0.00       0.00       5.75      55.14       8.30      62.61        0.02    14.32   0.899
  B145                      69.66       0.00       0.00       5.75      55.14       8.30      62.61        0.02    14.32   0.899
  B146                      69.66       0.00       0.00       5.75      55.14       8.30      62.61        0.02    14.32   0.899
  B147                      69.66       0.00       0.00       5.75      55.14       8.30      62.61        0.02    14.32   0.899
  B148                      69.66       0.00       0.00       5.75      55.14       8.30      62.61        0.02    14.32   0.899
  B149                      69.66       0.00       0.00       4.68      57.83       6.74      63.89        0.04    28.45   0.917
  B108                      69.66       0.00       0.00       5.75      55.10       8.27      62.55        0.02    14.20   0.898
  B42                       69.66       0.00       0.00       5.75      55.10       8.26      62.53        0.02    14.17   0.898
  B40                       69.66       0.00       0.00       5.75      55.10       8.26      62.53        0.02    14.17   0.898
  B38                       69.66       0.00       0.00       5.75      55.10       8.26      62.53        0.02    14.17   0.898
  B36                       69.66       0.00       0.00       5.75      55.10       8.26      62.53        0.02    14.17   0.898
  B34                       69.66       0.00       0.00       5.75      55.10       8.26      62.53        0.02    14.17   0.898
  B32                       69.66       0.00       0.00       5.75      55.10       8.26      62.53        0.02    14.17   0.898
  B30                       69.66       0.00       0.00       5.75      55.10       8.26      62.53        0.02    14.17   0.898
  B9                        69.66       0.00       0.00       5.75      55.10       8.26      62.53        0.02    14.17   0.898
  B7                        69.66       0.00       0.00       5.75      55.10       8.26      63.36        0.02    14.38   0.910
  B5                        69.66       0.00       0.00       5.75      55.10       8.26      62.53        0.02    14.17   0.898
  B3                        69.66       0.00       0.00       5.75      55.10       8.26      62.53        0.02    14.17   0.898
  B1                        69.66       0.00       0.00       5.75      55.10       8.26      63.36        0.02    14.38   0.910
  B23                       69.66       0.00       0.00       5.75      55.10       8.26      63.36        0.02    14.38   0.910
  B21                       69.66       0.00       0.00       5.75      55.10       8.26      62.53        0.02    14.17   0.898
  B19                       69.66       0.00       0.00       5.75      55.10       8.26      62.53        0.02    14.17   0.898
  B17                       69.66       0.00       0.00       5.75      55.10       8.26      62.53        0.02    14.17   0.898
  B15                       69.66       0.00       0.00       5.75      55.10       8.26      62.53        0.02    14.17   0.898
  B13                       69.66       0.00       0.00       5.75      55.10       8.26      62.53        0.02    14.17   0.898
  B11                       69.66       0.00       0.00       5.75      55.10       8.26      62.53        0.02    14.17   0.898
  B129                      69.66       0.00       0.00       5.75      55.14       8.30      62.61        0.02    14.32   0.899
  B127                      69.66       0.00       0.00       5.75      55.14       8.30      62.61        0.02    14.32   0.899
  B125                      69.66       0.00       0.00       5.75      55.14       8.30      62.61        0.02    14.32   0.899
  B123                      69.66       0.00       0.00       5.75      55.13       8.29      62.59        0.02    14.29   0.898
  B121                      69.66       0.00       0.00       5.75      55.13       8.29      62.59        0.02    14.29   0.898
  B120                      69.66       0.00       0.00       5.75      55.13       8.29      62.59        0.02    14.29   0.898
  B119                      69.66       0.00       0.00       5.75      55.13       8.29      62.59        0.02    14.29   0.898
  B113                      69.66       0.00       0.00       5.75      55.10       8.27      62.55        0.02    14.20   0.898
  B111                      69.66       0.00       0.00       5.75      55.10       8.27      62.55        0.02    14.20   0.898
  B109                      69.66       0.00       0.00       5.75      55.10       8.27      62.55        0.02    14.20   0.898
  B107                      69.66       0.00       0.00       5.75      55.10       8.27      62.55        0.02    14.20   0.898
  B105                      69.66       0.00       0.00       5.75      55.10       8.27      62.55        0.02    14.20   0.898
  B103                      69.66       0.00       0.00       5.75      55.10       8.27      62.55        0.02    14.20   0.898
  B101                      69.66       0.00       0.00       5.75      55.10       8.27      62.55        0.02    14.20   0.898
  BB118                     69.66       0.00       0.00       4.68      57.82       6.73      63.88        0.04    28.41   0.917
  B99                       69.66       0.00       0.00       4.68      57.75       6.70      63.78        0.04    27.99   0.916
  B28                       69.66       0.00       0.00       4.68      57.73       6.69      63.76        0.04    27.85   0.915
  B115                      69.66       0.00       0.00       5.75      55.10       8.27      62.55        0.02    14.20   0.898
  B22                       69.66       0.00       0.00       5.75      55.10       8.26      62.53        0.02    14.17   0.898
  B20                       69.66       0.00       0.00       5.75      55.10       8.26      62.53        0.02    14.17   0.898
  B18                       69.66       0.00       0.00       5.75      55.10       8.26      62.53        0.02    14.17   0.898
  B16                       69.66       0.00       0.00       5.75      55.10       8.26      62.53        0.02    14.17   0.898
  B14                       69.66       0.00       0.00       5.75      55.10       8.26      62.53        0.02    14.17   0.898
  B12                       69.66       0.00       0.00       5.75      55.10       8.26      62.53        0.02    14.17   0.898
  B10                       69.66       0.00       0.00       5.75      55.10       8.26      62.53        0.02    14.17   0.898
  B8                        69.66       0.00       0.00       5.75      55.10       8.26      63.36        0.02    14.38   0.910
  B6                        69.66       0.00       0.00       5.75      55.10       8.26      62.53        0.02    14.17   0.898
  B4                        69.66       0.00       0.00       5.75      55.10       8.26      62.53        0.02    14.17   0.898
  B2                        69.66       0.00       0.00       5.75      55.10       8.26      62.53        0.02    14.17   0.898
  B29                       69.66       0.00       0.00       5.75      55.10       8.26      62.53        0.02    14.17   0.898
  B31                       69.66       0.00       0.00       5.75      55.10       8.26      62.53        0.02    14.17   0.898
  B33                       69.66       0.00       0.00       5.75      55.10       8.26      62.53        0.02    14.17   0.898
  B35.                      69.66       0.00       0.00       5.75      55.10       8.26      62.53        0.02    14.17   0.898
  B37                       69.66       0.00       0.00       5.75      55.10       8.26      62.53        0.02    14.17   0.898
  B39                       69.66       0.00       0.00       5.75      55.10       8.26      63.36        0.02    14.38   0.910
  B41                       69.66       0.00       0.00       5.75      55.10       8.26      62.53        0.02    14.17   0.898
  B43                       69.66       0.00       0.00       5.75      55.10       8.26      62.53        0.02    14.17   0.898
  B27                       69.66       0.00       0.00       4.68      57.73       6.69      63.76        0.04    27.85   0.915
  B25                       69.66       0.00       0.00       4.68      57.73       6.69      63.76        0.04    27.85   0.915
  B24                       69.66       0.00       0.00       4.68      57.73       6.69      64.43        0.04    28.16   0.925
  B67                       69.66       0.00       0.00       4.68      57.73       6.69      63.76        0.04    27.85   0.915
  B68                       69.66       0.00       0.00       4.68      57.73       6.69      63.76        0.04    27.85   0.915
  B98                       69.66       0.00       0.00       4.68      57.75       6.70      63.78        0.04    27.99   0.916
  B97                       69.66       0.00       0.00       4.68      57.68       6.68      63.69        0.04    27.46   0.914
  B46                       69.66       0.00       0.00       4.95      57.09       7.11      63.49        0.03    19.08   0.911
  B45                       69.66       0.00       0.00       4.76      57.51       6.80      63.63        0.05    32.23   0.913
  B47                       69.66       0.00       0.00       4.93      57.08       7.03      63.41        0.05    32.82   0.910
  B44                       69.66       0.00       0.00       5.75      55.07       8.24      62.49        0.03    18.76   0.897
  B122                      69.66       0.00       0.00       4.68      57.82       6.73      63.88        0.04    28.43   0.917
  B124                      69.66       0.00       0.00       5.75      55.13       8.29      62.59        0.02    14.29   0.898
  B126                      69.66       0.00       0.00       5.75      55.13       8.29      62.59        0.02    14.29   0.898
  B128                      69.66       0.00       0.00       5.75      55.13       8.29      62.59        0.02    14.29   0.898
  B130                      69.66       0.00       0.00       5.75      55.13       8.29      62.59        0.02    14.29   0.898
  B132                      69.66       0.00       0.00       5.75      55.14       8.30      62.61        0.02    14.32   0.899
  B135                      69.66       0.00       0.00       5.75      55.14       8.30      62.61        0.02    14.32   0.899
  B137                      69.66       0.00       0.00       5.75      55.14       8.30      62.61        0.02    14.32   0.899
  BBB118                    69.66       0.00       0.00       4.68      57.75       6.70      63.78        0.04    27.99   0.916
  B48                       69.66       0.00       0.00       4.68      57.73       6.69      63.76        0.04    27.85   0.915
  BB117                     69.66       0.00       0.00       4.68      57.75       6.70      63.78        0.04    27.99   0.916
  B83                       69.66       0.00       0.00       5.75      55.10       8.26      62.53        0.02    14.17   0.898
  B81                       69.66       0.00       0.00       5.75      55.10       8.26      62.53        0.02    14.17   0.898
  B79                       69.66       0.00       0.00       5.75      55.10       8.26      62.53        0.02    14.17   0.898
  B77                       69.66       0.00       0.00       5.75      55.10       8.26      62.53        0.02    14.17   0.898
  B75                       69.66       0.00       0.00       5.75      55.10       8.26      62.53        0.02    14.17   0.898
  B73                       69.66       0.00       0.00       5.75      55.10       8.26      62.53        0.02    14.17   0.898
  B71                       69.66       0.00       0.00       5.75      55.10       8.26      62.53        0.02    14.17   0.898
  B69                       69.66       0.00       0.00       5.75      55.10       8.26      62.53        0.02    14.17   0.898
  B70                       69.66       0.00       0.00       5.75      55.10       8.26      62.53        0.02    14.17   0.898
  B72                       69.66       0.00       0.00       5.75      55.10       8.26      62.53        0.02    14.17   0.898
  B74                       69.66       0.00       0.00       5.75      55.10       8.26      62.53        0.02    14.17   0.898
  B76                       69.66       0.00       0.00       5.75      55.10       8.26      62.53        0.02    14.17   0.898
  B78                       69.66       0.00       0.00       5.75      55.10       8.26      62.53        0.02    14.17   0.898
  B80                       69.66       0.00       0.00       5.75      55.10       8.26      62.53        0.02    14.17   0.898
  B82                       69.66       0.00       0.00       5.75      55.10       8.26      62.53        0.02    14.17   0.898
  B84                       69.66       0.00       0.00       5.75      55.10       8.26      62.53        0.02    14.17   0.898
  B85                       69.66       0.00       0.00       5.75      55.10       8.27      62.55        0.02    14.20   0.898
  B86                       69.66       0.00       0.00       5.75      55.10       8.27      62.55        0.02    14.20   0.898
  B88                       69.66       0.00       0.00       5.75      55.10       8.27      62.55        0.02    14.20   0.898
  B90                       69.66       0.00       0.00       5.75      55.10       8.27      62.55        0.02    14.20   0.898
  B92                       69.66       0.00       0.00       5.75      55.10       8.27      62.55        0.02    14.20   0.898
  B94                       69.66       0.00       0.00       5.75      55.10       8.27      62.55        0.02    14.20   0.898
  B96                       69.66       0.00       0.00       5.75      55.10       8.27      62.55        0.02    14.20   0.898
  B95                       69.66       0.00       0.00       5.75      55.10       8.27      62.55        0.02    14.20   0.898
  B93                       69.66       0.00       0.00       5.75      55.11       8.27      62.55        0.02    14.20   0.898
  B91                       69.66       0.00       0.00       5.75      55.10       8.27      62.55        0.02    14.20   0.898
  B89                       69.66       0.00       0.00       5.75      55.10       8.27      62.55        0.02    14.20   0.898
  B87                       69.66       0.00       0.00       5.75      55.10       8.27      62.55        0.02    14.20   0.898
  B116                      69.66       0.00       0.00       5.75      55.10       8.27      62.55        0.02    14.20   0.898
  B114                      69.66       0.00       0.00       5.75      55.10       8.27      62.55        0.02    14.20   0.898
  B112                      69.66       0.00       0.00       5.75      55.10       8.27      62.55        0.02    14.20   0.898
  B110                      69.66       0.00       0.00       5.75      55.10       8.27      62.55        0.02    14.20   0.898
  B50                       69.66       0.00       0.00       5.75      55.10       8.26      62.53        0.02    14.17   0.898
  B52                       69.66       0.00       0.00       5.75      55.10       8.26      62.53        0.02    14.17   0.898
  B54                       69.66       0.00       0.00       5.75      55.10       8.26      62.53        0.02    14.17   0.898
  B56                       69.66       0.00       0.00       5.75      55.10       8.26      62.53        0.02    14.17   0.898
  B58                       69.66       0.00       0.00       5.75      55.10       8.26      62.53        0.02    14.17   0.898
  B60                       69.66       0.00       0.00       5.75      55.10       8.26      62.53        0.02    14.17   0.898
  B106                      69.66       0.00       0.00       5.75      55.10       8.27      62.55        0.02    14.20   0.898
  B104                      69.66       0.00       0.00       5.75      55.10       8.27      62.55        0.02    14.20   0.898
  B102                      69.66       0.00       0.00       5.75      55.10       8.27      62.55        0.02    14.20   0.898
  B100                      69.66       0.00       0.00       4.68      57.75       6.70      63.78        0.04    27.99   0.916
  B66                       69.66       0.00       0.00       4.68      57.73       6.69      63.76        0.04    27.85   0.915
  B62                       69.66       0.00       0.00       5.75      55.10       8.26      62.53        0.02    14.17   0.898
  B64                       69.66       0.00       0.00       5.75      55.10       8.26      62.53        0.02    14.17   0.898
  B65                       69.66       0.00       0.00       4.68      57.73       6.69      63.76        0.04    27.85   0.915
  B63                       69.66       0.00       0.00       5.75      55.10       8.26      62.53        0.02    14.17   0.898
  B61                       69.66       0.00       0.00       5.75      55.10       8.26      62.53        0.02    14.17   0.898
  B59                       69.66       0.00       0.00       5.75      55.10       8.26      62.53        0.02    14.17   0.898
  B57                       69.66       0.00       0.00       5.75      55.10       8.26      62.53        0.02    14.17   0.898
  B55                       69.66       0.00       0.00       5.75      55.10       8.26      62.53        0.02    14.17   0.898
  B53                       69.66       0.00       0.00       5.75      55.10       8.26      62.53        0.02    14.17   0.898
  B51                       69.66       0.00       0.00       5.75      55.10       8.26      62.53        0.02    14.17   0.898
  B49                       69.66       0.00       0.00       5.75      55.10       8.26      62.53        0.02    14.17   0.898
  B138                      69.66       0.00       0.00       4.35      58.67       6.26      64.31        0.04    32.14   0.923
  B188                      69.66       0.00       0.00       4.93      57.20       7.09      64.29        0.04    31.41   0.923
  B189                      69.66       0.00       0.00       5.75      55.14       8.30      63.43        0.02    14.54   0.911
  B190                      69.66       0.00       0.00       5.75      55.14       8.30      63.43        0.02    14.54   0.911
  B191                      69.66       0.00       0.00       5.75      55.14       8.30      63.43        0.02    14.54   0.911
  B192                      69.66       0.00       0.00       5.75      55.14       8.30      63.43        0.02    14.54   0.911
  B193                      69.66       0.00       0.00       5.75      55.14       8.30      63.43        0.02    14.54   0.911
  B194                      69.66       0.00       0.00       4.68      57.83       6.74      64.57        0.04    28.80   0.927
  B195                      69.66       0.00       0.00       4.68      57.73       6.70      64.43        0.04    28.18   0.925
  B196                      69.66       0.00       0.00       5.75      55.10       8.26      63.36        0.02    14.38   0.910
  B197                      69.66       0.00       0.00       5.75      55.10       8.26      63.36        0.02    14.38   0.910
  B198                      69.66       0.00       0.00       5.75      55.10       8.26      63.36        0.02    14.38   0.910
  B199                      69.66       0.00       0.00       5.75      55.10       8.26      63.36        0.02    14.38   0.910
  B204                      69.66       0.00       0.00       4.68      57.73       6.70      64.43        0.04    28.18   0.925
  B203                      69.66       0.00       0.00       5.75      55.10       8.26      63.36        0.02    14.38   0.910
  B202                      69.66       0.00       0.00       5.75      55.10       8.26      63.36        0.02    14.38   0.910
  B200                      69.66       0.00       0.00       5.75      55.10       8.26      63.36        0.02    14.38   0.910
  B201                      69.66       0.00       0.00       5.75      55.10       8.26      63.36        0.02    14.38   0.910
  B176                      69.66       0.00       0.00       4.32      58.73       6.22      64.33        0.04    31.47   0.923
  B177                      69.66       0.00       0.00       5.75      55.14       8.30      62.60        0.02    14.31   0.899
  B178                      69.66       0.00       0.00       5.75      55.14       8.30      63.43        0.02    14.54   0.911
  B179                      69.66       0.00       0.00       5.75      55.14       8.30      63.43        0.02    14.54   0.911
  B180                      69.66       0.00       0.00       5.75      55.14       8.30      63.43        0.02    14.54   0.911
  B181                      69.66       0.00       0.00       5.75      55.14       8.30      63.43        0.02    14.54   0.911
  B182                      69.66       0.00       0.00       5.75      55.14       8.30      63.43        0.02    14.54   0.911
  B183                      69.66       0.00       0.00       5.75      55.10       8.26      63.36        0.02    14.38   0.910
  B184                      69.66       0.00       0.00       5.75      55.10       8.26      63.36        0.02    14.38   0.910
  B185                      69.66       0.00       0.00       5.75      55.10       8.26      63.36        0.02    14.38   0.910
  B186                      69.66       0.00       0.00       5.75      55.10       8.26      63.36        0.02    14.38   0.910
  B187                      69.66       0.00       0.00       4.68      57.73       6.70      63.76        0.04    27.87   0.915
  B165                      69.66       0.00       0.00       4.68      57.80       6.72      63.85        0.04    28.31   0.917
  BB166                     69.66       0.00       0.00       5.75      55.13       8.28      63.41        0.02    14.50   0.910
  BB167                     69.66       0.00       0.00       5.75      55.13       8.28      63.41        0.02    14.50   0.910
  B168                      69.66       0.00       0.00       5.75      55.14       8.30      63.44        0.02    14.55   0.911
  B169                      69.66       0.00       0.00       5.75      55.14       8.30      62.61        0.02    14.32   0.899
  B170                      69.66       0.00       0.00       5.75      55.14       8.30      62.61        0.02    14.32   0.899
  B171                      69.66       0.00       0.00       5.75      55.14       8.30      62.61        0.02    14.32   0.899
  B172                      69.66       0.00       0.00       5.75      55.14       8.30      62.61        0.02    14.32   0.899
  B173                      69.66       0.00       0.00       5.75      55.14       8.30      62.61        0.02    14.33   0.899
  B174                      69.66       0.00       0.00       5.75      55.14       8.30      62.61        0.02    14.33   0.899
  B175                      69.66       0.00       0.00       4.71      57.78       6.78      63.88        0.04    29.28   0.917
  B150                      69.66       0.00       0.00       3.99      59.59       5.76      65.34        0.04    29.97   0.938
  B151                      69.66       0.00       0.00       5.39      56.05       7.79      63.83        0.02    17.07   0.916
  B152                      69.66       0.00       0.00       5.48      55.84       7.90      63.74        0.02    17.05   0.915
  B153                      69.66       0.00       0.00       5.56      55.63       8.02      63.65        0.02    15.78   0.914
  B154                      69.66       0.00       0.00       5.67      55.35       8.18      63.53        0.02    16.45   0.912
  B155                      69.66       0.00       0.00       5.67      55.35       8.18      63.52        0.02    17.14   0.912
  B157                      69.66       0.00       0.00       5.70      55.28       8.22      63.50        0.02    14.92   0.912
  B158                      69.66       0.00       0.00       5.75      55.14       8.30      62.61        0.02    14.91   0.899
  B159                      69.66       0.00       0.00       5.83      54.91       8.40      62.47        0.02    15.82   0.897
  B160                      69.66       0.00       0.00       5.75      55.14       8.30      62.61        0.02    14.32   0.899
  B161                      69.66       0.00       0.00       5.97      54.56       8.59      62.29        0.03    18.37   0.894
  B162                      69.66       0.00       0.00       5.75      55.13       8.28      62.58        0.02    14.28   0.898
  B163                      69.66       0.00       0.00       5.04      56.89       7.23      63.39        0.05    32.62   0.910
  B164                      69.66       0.00       0.00       4.51      58.18       6.47      64.00        0.06    41.37   0.919
  B210                      69.66       0.00       0.00       9.63      45.16      35.65      58.23        0.56   315.06   0.836
  B205                      69.66       0.00       0.00       4.62      57.87       6.62      64.49        0.04    29.38   0.926
  B206                      69.66       0.00       0.00       5.83      54.88       8.37      63.26        0.02    15.70   0.908
  B207                      69.66       0.00       0.00       5.92      54.67       8.49      63.16        0.02    17.00   0.907
  B208                      69.66       0.00       0.00       6.00      54.45       8.60      63.05        0.03    18.78   0.905
  B209                      69.66       0.00       0.00       6.05      54.30       8.67      62.97        0.03    21.10   0.904
  B211                      69.66       0.00       0.00       4.82      57.37       6.88      64.25        0.04    31.24   0.922
  B212                      69.66       0.00       0.00       5.92      54.70       8.51      63.22        0.02    15.03   0.908
  B213                      69.66       0.00       0.00       6.00      54.49       8.63      63.12        0.02    16.95   0.906
  B214                      69.66       0.00       0.00       5.59      55.49       8.01      63.50        0.04    30.29   0.912
  B215                      69.66       0.00       0.00       6.05      54.35       8.70      63.05        0.03    23.90   0.905
  B216                      69.66       0.00       0.00       5.56      55.57       7.98      63.55        0.05    34.10   0.912
  B217                      69.66       0.00       0.00       5.75      55.11       8.27      63.39        0.02    14.45   0.910
  B218                      69.66       0.00       0.00       5.75      55.11       8.27      63.39        0.02    14.45   0.910
  B219                      69.66       0.00       0.00       5.75      55.11       8.27      63.39        0.02    14.45   0.910
  B220                      69.66       0.00       0.00       6.00      54.48       8.62      63.10        0.02    17.80   0.906
  B221                      69.66       0.00       0.00       5.06      56.83       7.27      64.10        0.06    40.27   0.920
  B224                      69.66       0.00       0.00       5.75      55.14       8.29      63.43        0.02    14.53   0.911
  B223                      69.66       0.00       0.00       5.75      55.14       8.29      63.43        0.02    14.53   0.911
  B222                      69.66       0.00       0.00       4.32      58.71       6.21      64.93        0.03    24.74   0.932
  
  
  ******************
  Node Depth Summary
  ******************
  
  ---------------------------------------------------------------------------------
                                 Average  Maximum  Maximum  Time of Max    Reported
                                   Depth    Depth      HGL   Occurrence   Max Depth
  Node                 Type       Meters   Meters   Meters  days hr:min      Meters
  ---------------------------------------------------------------------------------
  P1                   JUNCTION     0.08     1.26  1048.45     0  01:35        1.16
  P2                   JUNCTION     0.10     1.43  1048.45     0  01:34        1.32
  P3                   JUNCTION     0.10     1.69  1048.37     0  01:35        1.57
  P4                   JUNCTION     0.15     1.85  1048.37     0  01:35        1.74
  P5                   JUNCTION     0.12     1.87  1048.05     0  01:34        1.78
  P6                   JUNCTION     0.18     2.04  1048.05     0  01:34        1.94
  P7                   JUNCTION     0.18     1.93  1047.71     0  01:35        1.83
  P8                   JUNCTION     0.09     1.26  1046.81     0  01:34        1.22
  P9                   JUNCTION     0.17     1.43  1046.80     0  01:34        1.38
  P10                  JUNCTION     0.04     0.25  1045.19     0  01:33        0.24
  P11                  JUNCTION     0.12     0.41  1045.18     0  01:34        0.41
  P12                  JUNCTION     0.05     0.38  1044.88     0  01:34        0.34
  P13                  JUNCTION     0.13     0.54  1044.88     0  01:34        0.51
  P17                  JUNCTION     0.04     1.00  1047.16     0  01:32        0.74
  P18                  JUNCTION     0.07     1.00  1046.99     0  01:32        0.90
  P19                  JUNCTION     0.04     0.84  1046.79     0  01:32        0.70
  P20                  JUNCTION     0.10     1.17  1046.66     0  01:34        1.17
  P23                  JUNCTION     0.03     0.73  1046.39     0  01:32        0.68
  P24                  JUNCTION     0.11     1.09  1046.35     0  01:33        1.08
  P25                  JUNCTION     0.03     0.26  1044.98     0  01:33        0.24
  P26                  JUNCTION     0.10     0.37  1044.94     0  01:33        0.36
  P27                  JUNCTION     0.07     0.37  1044.58     0  01:34        0.37
  P28                  JUNCTION     0.11     0.41  1044.58     0  01:34        0.41
  P29                  JUNCTION     0.03     0.20  1044.22     0  01:34        0.20
  P30                  JUNCTION     0.10     0.38  1044.22     0  01:34        0.37
  P31                  JUNCTION     0.45     0.55  1043.95     0  01:33        0.54
  P32                  JUNCTION     0.13     0.47  1043.69     0  01:34        0.47
  P33                  JUNCTION     0.03     0.24  1042.67     0  01:34        0.18
  P34                  JUNCTION     0.10     0.36  1042.62     0  01:34        0.35
  P35                  JUNCTION     0.02     0.18  1040.87     0  01:34        0.16
  P36                  JUNCTION     0.09     0.31  1040.83     0  01:34        0.31
  P37                  JUNCTION     0.03     0.15  1037.60     0  01:35        0.12
  P38                  JUNCTION     0.10     0.33  1037.61     0  01:34        0.33
  P39                  JUNCTION     0.03     0.92  1049.09     0  01:33        0.39
  P40                  JUNCTION     0.05     1.00  1049.00     0  01:33        0.57
  P41                  JUNCTION     0.06     1.17  1048.67     0  01:34        1.07
  P42                  JUNCTION     0.15     1.74  1048.67     0  01:34        1.64
  P43                  JUNCTION     0.08     1.44  1048.35     0  01:35        1.29
  P44                  JUNCTION     0.14     1.60  1048.35     0  01:35        1.46
  P45                  JUNCTION     0.08     1.45  1047.74     0  01:34        1.36
  P46                  JUNCTION     0.14     1.61  1047.73     0  01:34        1.53
  P47                  JUNCTION     0.08     1.31  1046.64     0  01:34        1.28
  P48                  JUNCTION     0.13     1.48  1046.64     0  01:34        1.45
  P49                  JUNCTION     0.06     1.36  1045.87     0  01:31        1.13
  P50                  JUNCTION     0.13     1.36  1045.69     0  01:31        1.30
  P51                  JUNCTION     0.03     0.14  1042.85     0  01:35        0.10
  P52                  JUNCTION     0.09     0.31  1042.85     0  01:34        0.31
  P53                  JUNCTION     0.04     0.16  1038.73     0  01:31        0.16
  P54                  JUNCTION     0.09     0.30  1038.70     0  01:34        0.30
  P55                  JUNCTION     0.12     0.43  1037.69     0  01:34        0.43
  P57                  JUNCTION     0.10     0.36  1037.22     0  01:34        0.36
  P58                  JUNCTION     0.17     0.65  1036.31     0  01:34        0.64
  P22                  JUNCTION     0.04     0.88  1046.41     0  01:32        0.82
  P21                  JUNCTION     0.03     0.81  1046.51     0  01:32        0.65
  P16                  JUNCTION     0.07     0.23  1044.26     0  01:34        0.23
  P14                  JUNCTION     0.17     0.63  1044.79     0  01:34        0.59
  P84                  JUNCTION     0.00     0.04  1044.32     0  01:33        0.04
  P85                  JUNCTION     0.02     0.06  1044.32     0  01:34        0.06
  P86                  JUNCTION     0.03     0.11  1040.62     0  01:34        0.11
  P87                  JUNCTION     0.06     0.22  1037.28     0  01:34        0.22
  P88                  JUNCTION     0.05     0.19  1036.85     0  01:32        0.19
  P89                  JUNCTION     0.17     0.72  1036.78     0  01:34        0.72
  P59                  JUNCTION     0.03     0.09  1047.77     0  01:34        0.09
  P61                  JUNCTION     0.06     0.23  1046.82     0  01:34        0.23
  P62                  JUNCTION     0.08     0.32  1046.55     0  01:34        0.32
  P63                  JUNCTION     0.08     0.38  1046.39     0  01:34        0.36
  P64                  JUNCTION     0.12     0.45  1045.93     0  01:34        0.45
  P65                  JUNCTION     0.13     0.58  1046.09     0  01:34        0.58
  P66                  JUNCTION     0.11     0.39  1045.72     0  01:34        0.39
  P67                  JUNCTION     0.09     0.31  1044.69     0  01:34        0.31
  P68                  JUNCTION     0.04     0.12  1044.70     0  01:34        0.12
  P69                  JUNCTION     0.09     0.31  1042.05     0  01:34        0.30
  P70                  JUNCTION     0.03     0.11  1042.05     0  01:34        0.11
  P71                  JUNCTION     0.09     0.33  1038.60     0  01:34        0.33
  P72                  JUNCTION     0.04     0.13  1038.60     0  01:30        0.13
  P73                  JUNCTION     0.10     0.41  1037.62     0  01:34        0.40
  P74                  JUNCTION     0.14     0.53  1037.33     0  01:34        0.53
  P75                  JUNCTION     0.14     0.55  1037.13     0  01:34        0.55
  P76                  JUNCTION     0.15     0.64  1036.86     0  01:34        0.63
  P77                  JUNCTION     0.04     0.49  1036.91     0  01:33        0.49
  P78                  JUNCTION     0.07     0.25  1039.04     0  01:34        0.25
  P79                  JUNCTION     0.05     0.17  1038.76     0  01:34        0.17
  P80                  JUNCTION     0.04     0.16  1043.36     0  01:34        0.16
  P81                  JUNCTION     0.05     0.16  1043.39     0  01:33        0.16
  P82                  JUNCTION     0.04     0.12  1046.30     0  01:34        0.12
  P83                  JUNCTION     0.05     0.19  1046.38     0  01:33        0.18
  P60                  JUNCTION     0.05     0.19  1047.33     0  01:34        0.19
  P62A                 JUNCTION     0.06     0.30  1046.55     0  01:34        0.30
  P61A                 JUNCTION     0.05     0.22  1046.82     0  01:34        0.22
  P90                  JUNCTION     0.03     0.11  1047.24     0  01:34        0.11
  P91                  JUNCTION     0.03     0.11  1047.04     0  01:34        0.11
  P92                  JUNCTION     0.03     0.12  1046.21     0  01:34        0.12
  P93                  JUNCTION     0.06     0.21  1046.11     0  01:34        0.21
  P94                  JUNCTION     0.03     0.09  1045.83     0  01:34        0.09
  P95                  JUNCTION     0.06     0.23  1045.77     0  01:34        0.23
  P96                  JUNCTION     0.03     0.11  1045.49     0  01:31        0.11
  P97                  JUNCTION     0.06     0.23  1045.41     0  01:34        0.23
  E1                   OUTFALL      0.17     0.64  1035.64     0  01:34        0.64
  E32                  OUTFALL      0.17     0.71  1036.67     0  01:34        0.71
  E33                  OUTFALL      0.06     0.23  1044.61     0  01:34        0.23
  
  
  *******************
  Node Inflow Summary
  *******************
  
  -------------------------------------------------------------------------------------------------
                                  Maximum  Maximum                  Lateral       Total        Flow
                                  Lateral    Total  Time of Max      Inflow      Inflow     Balance
                                   Inflow   Inflow   Occurrence      Volume      Volume       Error
  Node                 Type           LPS      LPS  days hr:min    10^6 ltr    10^6 ltr     Percent
  -------------------------------------------------------------------------------------------------
  P1                   JUNCTION     56.89    72.63     0  01:31       0.079      0.0791      -0.031
  P2                   JUNCTION     57.10   131.51     0  01:31      0.0793       0.158       0.008
  P3                   JUNCTION     56.68   184.52     0  01:30      0.0788       0.079      -0.018
  P4                   JUNCTION     56.68   246.22     0  01:31      0.0788       0.316       0.071
  P5                   JUNCTION     70.67    98.71     0  01:30      0.0989       0.099      -0.014
  P6                   JUNCTION     56.89   287.55     0  01:31       0.079       0.494       0.012
  P7                   JUNCTION     55.69   316.13     0  01:34      0.0788       0.572       0.006
  P8                   JUNCTION     70.36    70.36     0  01:34      0.0985      0.0985      -0.013
  P9                   JUNCTION     42.51   407.77     0  01:34      0.0591        0.73       0.007
  P10                  JUNCTION     42.72    42.72     0  01:34      0.0594      0.0594       0.010
  P11                  JUNCTION     42.51   477.96     0  01:34      0.0591       0.848       0.010
  P12                  JUNCTION     60.57    60.57     0  01:34      0.0853      0.0853       0.005
  P13                  JUNCTION     52.01   580.89     0  01:34      0.0726        1.01       0.009
  P17                  JUNCTION     70.85    70.85     0  01:34      0.0985      0.0985      -0.013
  P18                  JUNCTION     70.85   147.76     0  01:32      0.0985       0.197       0.016
  P19                  JUNCTION     70.36    70.36     0  01:34      0.0985      0.0985      -0.001
  P20                  JUNCTION     42.51   260.01     0  01:32      0.0591       0.355       0.011
  P23                  JUNCTION     27.85    31.01     0  01:31      0.0394      0.0394       0.013
  P24                  JUNCTION     27.85   330.18     0  01:34      0.0394       0.473       0.005
  P25                  JUNCTION     42.51    42.51     0  01:34      0.0591      0.0591       0.030
  P26                  JUNCTION     42.51   433.29     0  01:33      0.0591       0.591       0.009
  P27                  JUNCTION     42.51    42.51     0  01:34      0.0591      0.0591       0.007
  P28                  JUNCTION     42.51   500.78     0  01:33      0.0591       0.709       0.014
  P29                  JUNCTION     56.19    56.19     0  01:34      0.0788      0.0788       0.006
  P30                  JUNCTION     61.16   616.50     0  01:34      0.0862       0.874       0.010
  P31                  JUNCTION     28.45    28.45     0  01:34      0.0395      0.0395       1.192
  P32                  JUNCTION      0.00  1204.30     0  01:34           0        1.92       0.006
  P33                  JUNCTION     42.97    42.97     0  01:34      0.0592      0.0592       0.057
  P34                  JUNCTION      0.00  1268.92     0  01:34           0        1.98       0.006
  P35                  JUNCTION     28.64    28.64     0  01:34      0.0394      0.0394       0.042
  P36                  JUNCTION      0.00  1294.55     0  01:34           0        2.02       0.006
  P37                  JUNCTION     59.20    59.20     0  01:34      0.0818      0.0818       0.002
  P38                  JUNCTION      0.00  1344.27     0  01:34           0         2.1       0.002
  P39                  JUNCTION     28.40    29.54     0  01:33      0.0394      0.0394      -0.030
  P40                  JUNCTION     56.81    93.72     0  01:33      0.0788       0.118      -0.016
  P41                  JUNCTION     70.06    70.06     0  01:34      0.0985      0.0985      -0.024
  P42                  JUNCTION     70.60   233.51     0  01:33      0.0985       0.315       0.085
  P43                  JUNCTION     42.19    64.41     0  01:31      0.0591      0.0592      -0.026
  P44                  JUNCTION     42.19   284.58     0  01:30      0.0591       0.433       0.035
  P45                  JUNCTION     56.81    68.19     0  01:31      0.0788      0.0788      -0.023
  P46                  JUNCTION     56.81   358.38     0  01:31      0.0788       0.591      -0.003
  P47                  JUNCTION     70.60    70.60     0  01:34      0.0985      0.0985      -0.019
  P48                  JUNCTION     70.60   443.57     0  01:31      0.0985       0.788       0.014
  P49                  JUNCTION     28.41    46.05     0  01:31      0.0395      0.0395      -0.075
  P50                  JUNCTION     28.43   486.57     0  01:34      0.0395       0.867      -0.001
  P51                  JUNCTION     42.86    42.86     0  01:34      0.0591      0.0591       0.013
  P52                  JUNCTION     42.86   571.54     0  01:34      0.0591       0.985       0.008
  P53                  JUNCTION     89.40    89.40     0  01:34       0.124       0.124       0.002
  P54                  JUNCTION     57.26   716.75     0  01:34      0.0789        1.19       0.005
  P55                  JUNCTION     29.96   746.00     0  01:34      0.0415        1.23       0.006
  P57                  JUNCTION      0.00   745.44     0  01:34           0        1.23       0.037
  P58                  JUNCTION      0.00  2085.93     0  01:34           0        3.33       0.002
  P22                  JUNCTION      0.00    40.98     0  01:31           0      0.0397      -0.003
  P21                  JUNCTION     27.85    33.63     0  01:31      0.0394      0.0394      -0.016
  P16                  JUNCTION      0.00   565.22     0  01:34           0        1.01       0.007
  P14                  JUNCTION      0.00   575.04     0  01:34           0        1.01       0.017
  P84                  JUNCTION      0.00     0.38     0  01:29           0    4.87e-05       0.243
  P85                  JUNCTION     32.62    32.66     0  01:33      0.0456      0.0456       0.010
  P86                  JUNCTION     66.26    98.88     0  01:34      0.0914       0.137      -0.001
  P87                  JUNCTION     32.85   131.57     0  01:34      0.0452       0.182       0.011
  P88                  JUNCTION      0.00   131.28     0  01:34           0       0.182       0.100
  P89                  JUNCTION      0.00  1450.20     0  01:34           0        2.18       0.002
  P59                  JUNCTION     62.28    62.28     0  01:34      0.0865      0.0865       0.001
  P61                  JUNCTION     39.88   132.89     0  01:34      0.0558       0.187       0.011
  P62                  JUNCTION     62.08   194.55     0  01:34       0.087       0.274       0.017
  P63                  JUNCTION     28.18   220.67     0  01:34      0.0398       0.313       0.018
  P64                  JUNCTION     43.15   573.70     0  01:34      0.0599       0.929       0.021
  P65                  JUNCTION    315.06   315.06     0  01:34       0.556       0.556       0.011
  P66                  JUNCTION     28.77   600.18     0  01:34      0.0399       0.969       0.023
  P67                  JUNCTION     71.33   737.69     0  01:34      0.0997        1.17       0.022
  P68                  JUNCTION     71.02    71.02     0  01:34      0.0993      0.0993       0.003
  P69                  JUNCTION     43.34   834.58     0  01:34      0.0599        1.31       0.018
  P70                  JUNCTION     57.99    57.99     0  01:34      0.0799      0.0799      -0.001
  P71                  JUNCTION     58.15   963.21     0  01:34      0.0799        1.49       0.009
  P72                  JUNCTION     74.86    74.86     0  01:34       0.103       0.103       0.000
  P73                  JUNCTION     31.41   992.77     0  01:34      0.0435        1.53       0.003
  P74                  JUNCTION      0.00   993.53     0  01:34           0        1.53       0.010
  P75                  JUNCTION      0.00   994.70     0  01:34           0        1.53       0.017
  P76                  JUNCTION      0.00  1062.89     0  01:34           0        1.58       0.012
  P77                  JUNCTION     29.28    72.96     0  01:31      0.0406      0.0453       0.017
  P78                  JUNCTION     42.98   258.68     0  01:34      0.0592       0.358       0.006
  P79                  JUNCTION     47.02   305.37     0  01:34       0.065       0.423      -0.003
  P80                  JUNCTION     57.51   217.05     0  01:34      0.0791       0.299       0.003
  P81                  JUNCTION     45.68    45.68     0  01:34      0.0629      0.0629       0.004
  P82                  JUNCTION     57.30   120.71     0  01:34      0.0794       0.157      -0.009
  P83                  JUNCTION     55.65    55.65     0  01:34      0.0778      0.0778       0.038
  P60                  JUNCTION     31.24    93.51     0  01:34      0.0444       0.131       0.020
  P62A                 JUNCTION      0.00     1.95     0  01:30           0    0.000374       0.143
  P61A                 JUNCTION      0.00     1.51     0  01:29           0    0.000258       0.301
  P90                  JUNCTION     58.00    58.00     0  01:34      0.0805      0.0805       0.005
  P91                  JUNCTION      0.00    57.99     0  01:34           0      0.0805       0.001
  P92                  JUNCTION     61.16    61.16     0  01:34      0.0846      0.0846       0.003
  P93                  JUNCTION      0.00   119.05     0  01:34           0       0.165       0.014
  P94                  JUNCTION     40.27    40.27     0  01:34       0.056       0.056       0.003
  P95                  JUNCTION      0.00   158.93     0  01:34           0       0.221       0.015
  P96                  JUNCTION     53.80    53.80     0  01:34      0.0744      0.0744       0.003
  P97                  JUNCTION      0.00   212.37     0  01:34           0       0.295       0.008
  E1                   OUTFALL       0.00  2080.13     0  01:34           0        3.33       0.000
  E32                  OUTFALL       0.00  1448.50     0  01:34           0        2.18       0.000
  E33                  OUTFALL       0.00   212.17     0  01:34           0       0.295       0.000
  
  
  **********************
  Node Surcharge Summary
  **********************
  
  Surcharging occurs when water rises above the top of the highest conduit.
  ---------------------------------------------------------------------
                                               Max. Height   Min. Depth
                                   Hours       Above Crown    Below Rim
  Node                 Type      Surcharged         Meters       Meters
  ---------------------------------------------------------------------
  P1                   JUNCTION        0.16          0.860        0.000
  P2                   JUNCTION        0.17          1.028        0.000
  P3                   JUNCTION        0.18          1.286        0.000
  P4                   JUNCTION        0.19          1.454        0.000
  P5                   JUNCTION        0.20          1.467        0.000
  P6                   JUNCTION        0.21          1.636        0.000
  P7                   JUNCTION        0.22          1.527        0.000
  P8                   JUNCTION        0.20          0.863        0.000
  P9                   JUNCTION        0.24          1.032        0.000
  P17                  JUNCTION        0.04          0.600        0.000
  P18                  JUNCTION        0.05          0.603        0.000
  P19                  JUNCTION        0.04          0.439        0.161
  P20                  JUNCTION        0.09          0.771        0.000
  P23                  JUNCTION        0.04          0.330        0.270
  P24                  JUNCTION        0.12          0.689        0.116
  P31                  JUNCTION        3.12          0.154        1.246
  P39                  JUNCTION        0.04          0.519        0.081
  P40                  JUNCTION        0.08          0.601        0.000
  P41                  JUNCTION        0.15          0.775        0.000
  P42                  JUNCTION        0.16          1.342        0.000
  P43                  JUNCTION        0.15          1.037        0.000
  P44                  JUNCTION        0.15          1.202        0.000
  P45                  JUNCTION        0.15          1.047        0.000
  P46                  JUNCTION        0.16          1.214        0.000
  P47                  JUNCTION        0.15          0.905        0.000
  P48                  JUNCTION        0.15          1.075        0.000
  P49                  JUNCTION        0.15          0.960        0.000
  P50                  JUNCTION        0.17          0.960        0.000
  P22                  JUNCTION        0.07          0.478        0.000
  P21                  JUNCTION        0.04          0.412        0.063
  P14                  JUNCTION        0.02          0.032        1.014
  P65                  JUNCTION        0.16          0.184        0.586
  
  
  *********************
  Node Flooding Summary
  *********************
  
  Flooding refers to all water that overflows a node, whether it ponds or not.
  --------------------------------------------------------------------------
                                                             Total   Maximum
                                 Maximum   Time of Max       Flood    Ponded
                        Hours       Rate    Occurrence      Volume     Depth
  Node                 Flooded       LPS   days hr:min    10^6 ltr    Meters
  --------------------------------------------------------------------------
  P1                      0.09      9.83      0  01:31       0.000     0.260
  P2                      0.13     43.86      0  01:31       0.002     0.428
  P3                      0.16    170.63      0  01:30       0.001     0.706
  P4                      0.18    141.19      0  01:30       0.009     0.874
  P5                      0.17     52.25      0  01:30       0.001     0.867
  P6                      0.19     91.28      0  01:30       0.008     1.036
  P7                      0.19     57.57      0  01:30       0.006     0.927
  P8                      0.13     15.02      0  01:30       0.000     0.263
  P9                      0.17     35.57      0  01:32       0.005     0.432
  P17                     0.01      9.15      0  01:32       0.000     0.000
  P18                     0.01     13.62      0  01:32       0.000     0.003
  P20                     0.04     27.62      0  01:32       0.001     0.171
  P40                     0.01      3.29      0  01:33       0.000     0.001
  P41                     0.04      9.30      0  01:34       0.000     0.100
  P42                     0.15     67.83      0  01:33       0.007     0.667
  P43                     0.12     32.05      0  01:31       0.001     0.437
  P44                     0.15     59.79      0  01:31       0.005     0.602
  P45                     0.13     57.55      0  01:31       0.001     0.447
  P46                     0.15     59.19      0  01:31       0.005     0.614
  P47                     0.09     53.61      0  01:31       0.000     0.305
  P48                     0.14     54.66      0  01:31       0.003     0.475
  P49                     0.01     10.51      0  01:31       0.000     0.000
  P22                     0.01      8.43      0  01:32       0.000     0.003
  
  
  ***********************
  Outfall Loading Summary
  ***********************
  
  -----------------------------------------------------------
                         Flow       Avg       Max       Total
                         Freq      Flow      Flow      Volume
  Outfall Node           Pcnt       LPS       LPS    10^6 ltr
  -----------------------------------------------------------
  E1                    97.47    278.84   2080.13       3.327
  E32                   97.59    182.37   1448.50       2.179
  E33                   97.40     24.78    212.17       0.295
  -----------------------------------------------------------
  System                97.49    485.99   3737.60       5.801
  
  
  
  ********************
  Link Flow Summary
  ********************
  
  -----------------------------------------------------------------------------
                                 Maximum  Time of Max   Maximum    Max/    Max/
                                  |Flow|   Occurrence   |Veloc|    Full    Full
  Link                 Type          LPS  days hr:min     m/sec    Flow   Depth
  -----------------------------------------------------------------------------
  G1                   CONDUIT     78.17     0  01:31      1.14    0.24    1.00
  G2                   CONDUIT    140.37     0  01:31      1.24    0.67    1.00
  G3                   CONDUIT    135.14     0  01:30      1.11    0.46    1.00
  G4                   CONDUIT    172.53     0  01:31      1.44    0.82    1.00
  G5                   CONDUIT     79.35     0  01:30      0.76    0.24    1.00
  G6                   CONDUIT    262.67     0  01:34      2.09    1.22    1.00
  G7                   CONDUIT    307.11     0  01:35      2.44    1.48    1.00
  G8                   CONDUIT     72.15     0  01:30      0.78    0.22    1.00
  G38                  CONDUIT     37.16     0  01:33      0.97    0.11    1.00
  G39                  CONDUIT     93.82     0  01:33      0.89    0.31    1.00
  G40                  CONDUIT    145.50     0  01:40      1.30    0.24    1.00
  G41                  CONDUIT    230.19     0  01:40      1.83    1.79    1.00
  G42                  CONDUIT     72.33     0  01:31      0.63    0.22    1.00
  G43                  CONDUIT    285.95     0  01:40      2.28    1.21    1.00
  G44                  CONDUIT     81.66     0  01:31      0.80    0.25    1.00
  G45                  CONDUIT    337.43     0  01:40      2.69    1.15    1.00
  G46                  CONDUIT    101.44     0  01:31      0.92    0.31    1.00
  G47                  CONDUIT    439.45     0  01:35      3.50    1.11    1.00
  G48                  CONDUIT     34.71     0  01:31      0.39    0.11    1.00
  G49                  CONDUIT    486.43     0  01:34      4.12    1.21    0.89
  G50                  CONDUIT     42.73     0  01:33      0.78    0.13    0.54
  G51                  CONDUIT    570.69     0  01:34      5.52    0.95    0.77
  G52                  CONDUIT     89.40     0  01:34      1.27    0.28    0.57
  G53                  CONDUIT    716.25     0  01:34      3.94    0.51    0.61
  G54                  CONDUIT    745.44     0  01:34      3.73    0.87    0.67
  G56                  CONDUIT    745.08     0  01:34      3.93    0.68    0.69
  G16                  CONDUIT     78.68     0  01:32      1.19    0.24    1.00
  G17                  CONDUIT    150.56     0  01:32      1.31    0.72    1.00
  G18                  CONDUIT     92.53     0  01:34      0.96    0.17    1.00
  G19                  CONDUIT    250.72     0  01:34      2.00    1.19    1.00
  G20                  CONDUIT     40.98     0  01:31      1.49    0.13    1.00
  G21                  CONDUIT     40.93     0  01:31      0.37    0.12    1.00
  G22                  CONDUIT     41.83     0  01:31      0.40    0.08    1.00
  G23                  CONDUIT    330.04     0  01:34      2.64    1.58    0.98
  G24                  CONDUIT     63.23     0  01:33      0.71    0.21    0.77
  G25                  CONDUIT    416.45     0  01:34      2.16    0.68    0.65
  G26                  CONDUIT     42.47     0  01:33      0.38    0.26    0.96
  G27                  CONDUIT    497.26     0  01:34      2.54    0.81    0.65
  G28                  CONDUIT     59.27     0  01:33      0.77    0.18    0.71
  G9                   CONDUIT    394.03     0  01:34      3.14    1.89    1.00
  G10                  CONDUIT     52.71     0  01:32      0.54    0.16    0.81
  G11                  CONDUIT    472.22     0  01:34      2.09    0.76    0.79
  G12                  CONDUIT     74.45     0  01:30      0.75    0.23    0.97
  G13                  CONDUIT    575.04     0  01:34      2.13    0.90    0.95
  G14                  CONDUIT    565.22     0  01:34      2.85    1.77    0.69
  G29                  CONDUIT    613.05     0  01:34      3.30    0.71    0.63
  G15                  CONDUIT    564.96     0  01:34      3.48    0.32    0.59
  G30                  CONDUIT     28.52     0  01:34      0.38    0.05    0.58
  G31                  CONDUIT   1205.36     0  01:34      4.68    0.63    0.52
  G33                  CONDUIT   1258.41     0  01:34      6.37    0.39    0.42
  G34                  CONDUIT     46.10     0  01:34      0.69    0.14    0.61
  G35                  CONDUIT   1286.56     0  01:34      6.75    0.32    0.40
  G36                  CONDUIT     60.13     0  01:34      1.00    0.19    0.59
  G37                  CONDUIT   1341.01     0  01:34      6.20    0.37    0.47
  G32                  CONDUIT     67.70     0  01:34      0.80    0.21    0.73
  G57                  CONDUIT   2080.13     0  01:34      4.79    0.98    0.81
  G58                  CONDUIT     62.27     0  01:34      1.60    0.12    0.35
  G59                  CONDUIT     93.11     0  01:34      1.62    0.45    0.47
  G61                  CONDUIT    132.52     0  01:34      1.44    0.63    0.69
  G63                  CONDUIT    192.69     0  01:34      1.76    0.94    0.87
  G64                  CONDUIT    216.39     0  01:34      1.77    1.01    0.97
  G66                  CONDUIT    315.06     0  01:34      2.51    2.35    1.00
  G65                  CONDUIT    571.86     0  01:34      2.70    0.90    0.70
  G67                  CONDUIT    600.24     0  01:34      3.51    0.75    0.59
  G68                  CONDUIT     71.00     0  01:34      1.10    0.20    0.54
  G69                  CONDUIT    737.45     0  01:34      5.07    0.52    0.51
  G70                  CONDUIT     57.99     0  01:34      1.06    0.17    0.52
  G71                  CONDUIT    833.27     0  01:34      5.48    0.51    0.53
  G72                  CONDUIT     74.85     0  01:34      1.16    0.21    0.57
  G73                  CONDUIT    962.09     0  01:34      5.31    0.59    0.61
  G74                  CONDUIT    993.53     0  01:34      4.19    0.71    0.78
  G75                  CONDUIT    994.70     0  01:34      2.75    0.76    0.68
  G76                  CONDUIT    996.80     0  01:34      2.54    0.75    0.75
  G78                  CONDUIT   1029.96     0  01:34      2.34    0.78    0.85
  G77                  CONDUIT     96.13     0  01:31      0.50    0.09    0.91
  G60                  CONDUIT      1.51     0  01:29      0.07    0.02    0.56
  G62                  CONDUIT      1.95     0  01:30      0.06    0.02    0.78
  G79                  CONDUIT     63.41     0  01:34      1.45    0.57    0.39
  G80                  CONDUIT    113.86     0  01:34      2.92    0.21    0.35
  G81                  CONDUIT     45.69     0  01:34      1.02    0.41    0.40
  G82                  CONDUIT    215.83     0  01:34      3.33    0.32    0.51
  G83                  CONDUIT    258.41     0  01:34      3.81    0.73    0.53
  G84                  CONDUIT    305.32     0  01:34      3.19    0.38    0.71
  G85                  CONDUIT      0.38     0  01:29      0.06    0.00    0.13
  G86                  CONDUIT     32.63     0  01:34      1.61    0.06    0.22
  G87                  CONDUIT     98.73     0  01:34      2.03    0.17    0.41
  G88                  CONDUIT    131.28     0  01:34      1.88    0.58    0.55
  G89                  CONDUIT    131.23     0  01:34      1.66    0.21    0.45
  G90                  CONDUIT     57.99     0  01:34      2.10    0.17    0.27
  G91                  CONDUIT     57.91     0  01:34      1.23    0.16    0.40
  G92                  CONDUIT     61.15     0  01:34      1.27    0.17    0.41
  G94                  CONDUIT     40.26     0  01:34      0.89    0.11    0.40
  G93                  CONDUIT    118.79     0  01:34      1.65    0.56    0.56
  G95                  CONDUIT    158.71     0  01:34      2.10    0.64    0.58
  G96                  CONDUIT     53.79     0  01:34      1.18    0.15    0.42
  G152                 CONDUIT   1448.50     0  01:34      3.05    1.10    0.90
  G153                 CONDUIT    212.17     0  01:34      2.82    0.63    0.58
  
  
  ***************************
  Flow Classification Summary
  ***************************
  
  -------------------------------------------------------------------------------------
                      Adjusted    ---------- Fraction of Time in Flow Class ---------- 
                       /Actual         Up    Down  Sub   Sup   Up    Down  Norm  Inlet 
  Conduit               Length    Dry  Dry   Dry   Crit  Crit  Crit  Crit  Ltd   Ctrl  
  -------------------------------------------------------------------------------------
  G1                      1.00   0.02  0.00  0.00  0.18  0.80  0.00  0.00  0.91  0.00
  G2                      1.00   0.02  0.00  0.00  0.96  0.02  0.00  0.00  0.90  0.00
  G3                      1.00   0.02  0.00  0.00  0.97  0.01  0.00  0.00  0.91  0.00
  G4                      1.00   0.02  0.00  0.00  0.16  0.82  0.00  0.00  0.91  0.00
  G5                      1.00   0.02  0.00  0.00  0.97  0.01  0.00  0.00  0.91  0.00
  G6                      1.00   0.02  0.00  0.00  0.08  0.90  0.00  0.00  0.77  0.00
  G7                      1.00   0.02  0.00  0.00  0.11  0.87  0.00  0.00  0.84  0.00
  G8                      1.00   0.02  0.00  0.00  0.96  0.02  0.00  0.00  0.87  0.00
  G38                     1.00   0.02  0.00  0.00  0.64  0.34  0.00  0.00  0.94  0.00
  G39                     1.00   0.02  0.00  0.00  0.97  0.01  0.00  0.00  0.93  0.00
  G40                     1.00   0.02  0.00  0.00  0.96  0.02  0.00  0.00  0.93  0.00
  G41                     1.00   0.02  0.00  0.00  0.98  0.00  0.00  0.00  0.00  0.00
  G42                     1.00   0.02  0.00  0.00  0.96  0.02  0.00  0.00  0.92  0.00
  G43                     1.00   0.02  0.00  0.00  0.06  0.92  0.00  0.00  0.88  0.00
  G44                     1.00   0.02  0.00  0.00  0.96  0.02  0.00  0.00  0.92  0.00
  G45                     1.00   0.02  0.00  0.00  0.05  0.93  0.00  0.00  0.30  0.00
  G46                     1.00   0.02  0.00  0.00  0.96  0.02  0.00  0.00  0.92  0.00
  G47                     1.00   0.02  0.00  0.00  0.05  0.93  0.00  0.00  0.88  0.00
  G48                     1.00   0.02  0.00  0.00  0.97  0.01  0.00  0.00  0.92  0.00
  G49                     1.00   0.02  0.00  0.00  0.00  0.98  0.00  0.00  0.01  0.00
  G50                     1.00   0.02  0.00  0.00  0.96  0.02  0.00  0.00  0.93  0.00
  G51                     1.00   0.02  0.00  0.00  0.00  0.98  0.00  0.00  0.92  0.00
  G52                     1.00   0.02  0.00  0.00  0.94  0.04  0.00  0.00  0.94  0.00
  G53                     1.00   0.02  0.00  0.00  0.00  0.98  0.00  0.00  0.97  0.00
  G54                     1.00   0.02  0.00  0.00  0.00  0.98  0.00  0.00  0.07  0.00
  G56                     1.00   0.02  0.00  0.00  0.00  0.05  0.00  0.93  0.04  0.00
  G16                     1.00   0.02  0.00  0.00  0.13  0.85  0.00  0.00  0.92  0.00
  G17                     1.00   0.02  0.00  0.00  0.69  0.29  0.00  0.00  0.93  0.00
  G18                     1.00   0.02  0.00  0.00  0.96  0.02  0.00  0.00  0.95  0.00
  G19                     1.00   0.02  0.00  0.00  0.13  0.85  0.00  0.00  0.81  0.00
  G20                     1.00   0.02  0.00  0.00  0.04  0.94  0.00  0.00  0.04  0.00
  G21                     1.00   0.02  0.00  0.00  0.98  0.00  0.00  0.00  0.93  0.00
  G22                     1.00   0.02  0.00  0.00  0.97  0.01  0.00  0.00  0.95  0.00
  G23                     1.00   0.02  0.00  0.00  0.00  0.00  0.00  0.98  0.00  0.00
  G24                     1.00   0.02  0.00  0.00  0.97  0.01  0.00  0.00  0.93  0.00
  G25                     1.00   0.02  0.00  0.00  0.01  0.97  0.00  0.00  0.87  0.00
  G26                     1.00   0.02  0.00  0.00  0.98  0.00  0.00  0.00  0.18  0.00
  G27                     1.00   0.02  0.00  0.00  0.01  0.97  0.00  0.00  0.10  0.00
  G28                     1.00   0.02  0.00  0.00  0.96  0.02  0.00  0.00  0.94  0.00
  G9                      1.00   0.02  0.00  0.00  0.00  0.00  0.00  0.98  0.00  0.00
  G10                     1.00   0.02  0.00  0.00  0.97  0.01  0.00  0.00  0.89  0.00
  G11                     1.00   0.02  0.00  0.00  0.03  0.95  0.00  0.00  0.84  0.00
  G12                     1.00   0.02  0.00  0.00  0.97  0.01  0.00  0.00  0.88  0.00
  G13                     1.00   0.02  0.00  0.00  0.17  0.81  0.00  0.00  0.50  0.00
  G14                     1.00   0.02  0.00  0.00  0.01  0.96  0.00  0.00  0.00  0.00
  G29                     1.00   0.02  0.00  0.00  0.00  0.00  0.00  0.98  0.00  0.00
  G15                     1.00   0.02  0.00  0.00  0.02  0.96  0.00  0.00  0.97  0.00
  G30                     1.00   0.02  0.06  0.00  0.00  0.00  0.92  0.00  0.00  0.00
  G31                     1.00   0.02  0.00  0.00  0.01  0.97  0.00  0.00  0.01  0.00
  G33                     1.00   0.02  0.00  0.00  0.00  0.98  0.00  0.00  0.00  0.00
  G34                     1.00   0.02  0.00  0.00  0.95  0.03  0.00  0.00  0.91  0.00
  G35                     1.00   0.02  0.00  0.00  0.00  0.98  0.00  0.00  0.97  0.00
  G36                     1.00   0.02  0.00  0.00  0.94  0.04  0.00  0.00  0.93  0.00
  G37                     1.00   0.02  0.00  0.00  0.00  0.04  0.00  0.94  0.03  0.00
  G32                     1.00   0.02  0.00  0.00  0.95  0.03  0.00  0.00  0.91  0.00
  G57                     1.00   0.02  0.00  0.00  0.00  0.98  0.00  0.00  0.25  0.00
  G58                     1.00   0.02  0.00  0.00  0.06  0.92  0.00  0.00  0.97  0.00
  G59                     1.00   0.02  0.00  0.00  0.00  0.00  0.00  0.98  0.00  0.00
  G61                     1.00   0.02  0.00  0.00  0.12  0.86  0.00  0.00  0.95  0.00
  G63                     1.00   0.02  0.00  0.00  0.02  0.95  0.00  0.00  0.79  0.00
  G64                     1.00   0.02  0.00  0.00  0.71  0.27  0.00  0.00  0.95  0.00
  G66                     1.00   0.02  0.00  0.00  0.40  0.58  0.00  0.00  0.07  0.00
  G65                     1.00   0.02  0.00  0.00  0.01  0.97  0.00  0.00  0.24  0.00
  G67                     1.00   0.02  0.00  0.00  0.01  0.97  0.00  0.00  0.01  0.00
  G68                     1.00   0.02  0.00  0.00  0.94  0.04  0.00  0.00  0.96  0.00
  G69                     1.00   0.02  0.00  0.00  0.00  0.98  0.00  0.00  0.21  0.00
  G70                     1.00   0.02  0.00  0.00  0.94  0.04  0.00  0.00  0.96  0.00
  G71                     1.00   0.02  0.00  0.00  0.00  0.98  0.00  0.00  0.97  0.00
  G72                     1.00   0.02  0.00  0.00  0.94  0.04  0.00  0.00  0.96  0.00
  G73                     1.00   0.02  0.00  0.00  0.00  0.98  0.00  0.00  0.97  0.00
  G74                     1.00   0.02  0.00  0.00  0.00  0.98  0.00  0.00  0.90  0.00
  G75                     1.00   0.02  0.00  0.00  0.00  0.98  0.00  0.00  0.53  0.00
  G76                     1.00   0.02  0.00  0.00  0.01  0.97  0.00  0.00  0.67  0.00
  G78                     1.00   0.02  0.00  0.00  0.06  0.92  0.00  0.00  0.37  0.00
  G77                     1.00   0.02  0.00  0.00  0.96  0.02  0.00  0.00  0.84  0.00
  G60                     1.00   0.02  0.02  0.00  0.96  0.00  0.00  0.00  0.04  0.00
  G62                     1.00   0.02  0.02  0.00  0.96  0.00  0.00  0.00  0.05  0.00
  G79                     1.00   0.02  0.00  0.00  0.15  0.83  0.00  0.00  0.01  0.00
  G80                     1.00   0.02  0.00  0.00  0.00  0.98  0.00  0.00  0.98  0.00
  G81                     1.00   0.02  0.00  0.00  0.98  0.00  0.00  0.00  0.09  0.00
  G82                     1.00   0.02  0.00  0.00  0.00  0.98  0.00  0.00  0.98  0.00
  G83                     1.00   0.02  0.00  0.00  0.00  0.98  0.00  0.00  0.05  0.00
  G84                     1.00   0.02  0.00  0.00  0.51  0.47  0.00  0.00  0.97  0.00
  G85                     1.00   0.02  0.64  0.00  0.34  0.00  0.00  0.00  0.44  0.00
  G86                     1.00   0.02  0.00  0.00  0.01  0.97  0.00  0.00  0.98  0.00
  G87                     1.00   0.02  0.00  0.00  0.00  0.98  0.00  0.00  0.98  0.00
  G88                     1.00   0.02  0.00  0.00  0.00  0.00  0.00  0.98  0.00  0.00
  G89                     1.00   0.02  0.00  0.00  0.02  0.02  0.00  0.94  0.03  0.00
  G90                     1.00   0.02  0.00  0.00  0.00  0.98  0.00  0.00  0.13  0.00
  G91                     1.00   0.02  0.00  0.00  0.10  0.88  0.00  0.00  0.98  0.00
  G92                     1.00   0.02  0.00  0.00  0.10  0.88  0.00  0.00  0.94  0.00
  G94                     1.00   0.02  0.00  0.00  0.96  0.02  0.00  0.00  0.97  0.00
  G93                     1.00   0.02  0.00  0.00  0.04  0.94  0.00  0.00  0.90  0.00
  G95                     1.00   0.02  0.00  0.00  0.01  0.97  0.00  0.00  0.24  0.00
  G96                     1.00   0.02  0.00  0.00  0.85  0.13  0.00  0.00  0.94  0.00
  G152                    1.00   0.02  0.00  0.00  0.01  0.97  0.00  0.00  0.26  0.00
  G153                    1.00   0.02  0.00  0.00  0.00  0.98  0.00  0.00  0.22  0.00
  
  
  *************************
  Conduit Surcharge Summary
  *************************
  
  ----------------------------------------------------------------------------
                                                           Hours        Hours 
                         --------- Hours Full --------   Above Full   Capacity
  Conduit                Both Ends  Upstream  Dnstream   Normal Flow   Limited
  ----------------------------------------------------------------------------
  G1                          0.16      0.16      0.17      0.01         0.01
  G2                          0.17      0.17      0.19      0.01         0.01
  G3                          0.18      0.18      0.19      0.01         0.01
  G4                          0.19      0.19      0.21      0.01         0.01
  G5                          0.20      0.20      0.21      0.01         0.01
  G6                          0.21      0.21      0.22      0.17         0.18
  G7                          0.22      0.22      0.24      0.21         0.21
  G8                          0.20      0.20      0.24      0.01         0.01
  G38                         0.04      0.04      0.08      0.01         0.01
  G39                         0.08      0.08      0.16      0.01         0.01
  G40                         0.15      0.15      0.16      0.01         0.01
  G41                         0.15      0.16      0.15      0.18         0.15
  G42                         0.15      0.15      0.15      0.01         0.01
  G43                         0.15      0.15      0.16      0.04         0.03
  G44                         0.15      0.15      0.16      0.01         0.01
  G45                         0.15      0.16      0.15      0.16         0.15
  G46                         0.15      0.15      0.15      0.01         0.01
  G47                         0.15      0.15      0.17      0.15         0.15
  G48                         0.15      0.15      0.17      0.01         0.01
  G49                         0.01      0.17      0.01      0.17         0.01
  G16                         0.04      0.04      0.05      0.01         0.01
  G17                         0.05      0.05      0.09      0.01         0.01
  G18                         0.04      0.04      0.09      0.01         0.01
  G19                         0.09      0.09      0.12      0.06         0.06
  G20                         0.04      0.04      0.07      0.01         0.01
  G21                         0.07      0.07      0.12      0.01         0.01
  G22                         0.04      0.04      0.12      0.01         0.01
  G23                         0.01      0.12      0.01      0.15         0.01
  G26                         0.01      0.01      0.03      0.01         0.01
  G9                          0.15      0.24      0.15      0.26         0.15
  G10                         0.01      0.01      0.02      0.01         0.01
  G12                         0.01      0.01      0.17      0.01         0.01
  G13                         0.01      0.01      0.02      0.01         0.01
  G14                         0.01      0.02      0.01      0.22         0.01
  G30                         0.01      0.01      3.11      0.01         0.01
  G64                         0.01      0.01      0.06      0.02         0.01
  G66                         0.06      0.16      0.06      0.30         0.06
  G77                         0.01      0.01      0.04      0.01         0.01
  G84                         0.01      0.01      0.20      0.01         0.01
  G152                        0.01      0.01      0.01      0.04         0.01
  

  Analysis begun on:  Thu Aug 21 12:33:16 2025
  Analysis ended on:  Thu Aug 21 12:33:29 2025
  Total elapsed time: 00:00:13