
  EPA STORM WATER MANAGEMENT MODEL - VERSION 5.2 (Build 5.2.4)
  PYSWMM TOOLKIT API - VERSION v1.0 (2023-11-27)
  ------------------------------------------------------------

  test 
  
  ****************
  Analysis Options
  ****************
  Flow Units ............... LPS
  Process Models:
    Rainfall/Runoff ........ YES
    RDII ................... NO
    Snowmelt ............... NO
    Groundwater ............ NO
    Flow Routing ........... YES
    Ponding Allowed ........ YES
    Water Quality .......... NO
  Infiltration Method ...... CURVE_NUMBER
  Flow Routing Method ...... DYNWAVE
  Surcharge Method ......... EXTRAN
  Starting Date ............ 11/13/2024 00:00:00
  Ending Date .............. 11/13/2024 01:15:00
  Antecedent Dry Days ...... 7.0
  Report Time Step ......... 00:05:00
  Wet Time Step ............ 00:01:00
  Dry Time Step ............ 01:00:00
  Routing Time Step ........ 0.60 sec
  Variable Time Step ....... YES
  Maximum Trials ........... 8
  Number of Threads ........ 1
  Head Tolerance ........... 0.001500 m
  
  
  **************************        Volume         Depth
  Runoff Quantity Continuity     hectare-m            mm
  **************************     ---------       -------
  Total Precipitation ......         0.452        48.800
  Evaporation Loss .........         0.000         0.000
  Infiltration Loss ........         0.049         5.316
  Surface Runoff ...........         0.395        42.664
  Final Storage ............         0.006         0.611
  Continuity Error (%) .....         0.430
  
  
  **************************        Volume        Volume
  Flow Routing Continuity        hectare-m      10^6 ltr
  **************************     ---------     ---------
  Dry Weather Inflow .......         0.000         0.000
  Wet Weather Inflow .......         0.395         3.954
  Groundwater Inflow .......         0.000         0.000
  RDII Inflow ..............         0.000         0.000
  External Inflow ..........         0.000         0.000
  External Outflow .........         0.395         3.947
  Flooding Loss ............         0.000         0.000
  Evaporation Loss .........         0.000         0.000
  Exfiltration Loss ........         0.000         0.000
  Initial Stored Volume ....         0.000         0.000
  Final Stored Volume ......         0.001         0.007
  Continuity Error (%) .....        -0.007
  
  
  *************************
  Highest Continuity Errors
  *************************
  Node P31 (1.68%)
  
  
  ***************************
  Time-Step Critical Elements
  ***************************
  None
  
  
  ********************************
  Highest Flow Instability Indexes
  ********************************
  Link G66 (17)
  Link G79 (7)
  Link G40 (6)
  Link G65 (6)
  Link G8 (5)
  
  
  *********************************
  Most Frequent Nonconverging Nodes
  *********************************
  Node E1 (3.78%)
  Node E32 (3.78%)
  Node E33 (3.78%)
  Node P2 (0.53%)
  Node P1 (0.52%)
  
  
  *************************
  Routing Time Step Summary
  *************************
  Minimum Time Step           :     0.40 sec
  Average Time Step           :     0.50 sec
  Maximum Time Step           :     0.60 sec
  % of Time in Steady State   :     0.00
  Average Iterations per Step :     2.41
  % of Steps Not Converging   :     3.78
  Time Step Frequencies       :
      0.600 -  0.579 sec      :    98.87 %
      0.579 -  0.558 sec      :     0.04 %
      0.558 -  0.538 sec      :     0.04 %
      0.538 -  0.519 sec      :     0.02 %
      0.519 -  0.500 sec      :     1.02 %
  
  
  ***************************
  Subcatchment Runoff Summary
  ***************************
  
  ------------------------------------------------------------------------------------------------------------------------------
                            Total      Total      Total      Total     Imperv       Perv      Total       Total     Peak  Runoff
                           Precip      Runon       Evap      Infil     Runoff     Runoff     Runoff      Runoff   Runoff   Coeff
  Subcatchment                 mm         mm         mm         mm         mm         mm         mm    10^6 ltr      LPS
  ------------------------------------------------------------------------------------------------------------------------------
  B140                      48.80       0.00       0.00       4.14      40.73       3.71      44.06        0.03    30.00   0.903
  B139                      48.80       0.00       0.00       4.57      39.90       4.08      43.57        0.03    29.34   0.893
  B141                      48.80       0.00       0.00       5.21      38.66       4.70      42.89        0.01    14.02   0.879
  B142                      48.80       0.00       0.00       5.21      38.66       4.70      42.89        0.01    14.02   0.879
  B144                      48.80       0.00       0.00       5.21      38.66       4.70      42.89        0.01    14.02   0.879
  B145                      48.80       0.00       0.00       5.21      38.66       4.70      42.89        0.01    14.02   0.879
  B146                      48.80       0.00       0.00       5.21      38.66       4.70      42.89        0.01    14.02   0.879
  B147                      48.80       0.00       0.00       5.21      38.66       4.70      42.89        0.01    14.02   0.879
  B148                      48.80       0.00       0.00       5.21      38.66       4.70      42.89        0.01    14.02   0.879
  B149                      48.80       0.00       0.00       4.24      40.52       3.79      43.93        0.03    27.89   0.900
  B108                      48.80       0.00       0.00       5.21      38.61       4.62      42.76        0.01    13.80   0.876
  B42                       48.80       0.00       0.00       5.21      38.60       4.60      42.74        0.01    13.75   0.876
  B40                       48.80       0.00       0.00       5.21      38.60       4.60      42.74        0.01    13.75   0.876
  B38                       48.80       0.00       0.00       5.21      38.60       4.60      42.74        0.01    13.75   0.876
  B36                       48.80       0.00       0.00       5.21      38.60       4.60      42.74        0.01    13.75   0.876
  B34                       48.80       0.00       0.00       5.21      38.60       4.60      42.74        0.01    13.75   0.876
  B32                       48.80       0.00       0.00       5.21      38.60       4.60      42.74        0.01    13.75   0.876
  B30                       48.80       0.00       0.00       5.21      38.60       4.60      42.74        0.01    13.75   0.876
  B9                        48.80       0.00       0.00       5.21      38.60       4.60      42.74        0.01    13.75   0.876
  B7                        48.80       0.00       0.00       5.21      38.60       4.60      43.20        0.01    13.91   0.885
  B5                        48.80       0.00       0.00       5.21      38.60       4.60      42.74        0.01    13.75   0.876
  B3                        48.80       0.00       0.00       5.21      38.60       4.60      42.74        0.01    13.75   0.876
  B1                        48.80       0.00       0.00       5.21      38.60       4.60      43.20        0.01    13.91   0.885
  B23                       48.80       0.00       0.00       5.21      38.60       4.60      43.20        0.01    13.91   0.885
  B21                       48.80       0.00       0.00       5.21      38.60       4.60      42.74        0.01    13.75   0.876
  B19                       48.80       0.00       0.00       5.21      38.60       4.60      42.74        0.01    13.75   0.876
  B17                       48.80       0.00       0.00       5.21      38.60       4.60      42.74        0.01    13.75   0.876
  B15                       48.80       0.00       0.00       5.21      38.60       4.60      42.74        0.01    13.75   0.876
  B13                       48.80       0.00       0.00       5.21      38.60       4.60      42.74        0.01    13.75   0.876
  B11                       48.80       0.00       0.00       5.21      38.60       4.60      42.74        0.01    13.75   0.876
  B129                      48.80       0.00       0.00       5.21      38.66       4.70      42.89        0.01    14.02   0.879
  B127                      48.80       0.00       0.00       5.21      38.66       4.70      42.89        0.01    14.02   0.879
  B125                      48.80       0.00       0.00       5.21      38.66       4.70      42.89        0.01    14.02   0.879
  B123                      48.80       0.00       0.00       5.21      38.64       4.67      42.84        0.01    13.95   0.878
  B121                      48.80       0.00       0.00       5.21      38.64       4.67      42.84        0.01    13.95   0.878
  B120                      48.80       0.00       0.00       5.21      38.64       4.67      42.84        0.01    13.95   0.878
  B119                      48.80       0.00       0.00       5.21      38.64       4.67      42.84        0.01    13.95   0.878
  B113                      48.80       0.00       0.00       5.21      38.61       4.62      42.76        0.01    13.80   0.876
  B111                      48.80       0.00       0.00       5.21      38.61       4.62      42.76        0.01    13.80   0.876
  B109                      48.80       0.00       0.00       5.21      38.61       4.62      42.76        0.01    13.80   0.876
  B107                      48.80       0.00       0.00       5.21      38.61       4.62      42.76        0.01    13.80   0.876
  B105                      48.80       0.00       0.00       5.21      38.61       4.62      42.76        0.01    13.80   0.876
  B103                      48.80       0.00       0.00       5.21      38.61       4.62      42.76        0.01    13.80   0.876
  B101                      48.80       0.00       0.00       5.21      38.61       4.62      42.76        0.01    13.80   0.876
  BB118                     48.80       0.00       0.00       4.24      40.51       3.77      43.91        0.03    27.82   0.900
  B99                       48.80       0.00       0.00       4.24      40.42       3.70      43.75        0.03    27.22   0.897
  B28                       48.80       0.00       0.00       4.24      40.39       3.69      43.71        0.03    27.04   0.896
  B115                      48.80       0.00       0.00       5.21      38.61       4.62      42.76        0.01    13.80   0.876
  B22                       48.80       0.00       0.00       5.21      38.60       4.60      42.74        0.01    13.75   0.876
  B20                       48.80       0.00       0.00       5.21      38.60       4.60      42.74        0.01    13.75   0.876
  B18                       48.80       0.00       0.00       5.21      38.60       4.60      42.74        0.01    13.75   0.876
  B16                       48.80       0.00       0.00       5.21      38.60       4.60      42.74        0.01    13.75   0.876
  B14                       48.80       0.00       0.00       5.21      38.60       4.60      42.74        0.01    13.75   0.876
  B12                       48.80       0.00       0.00       5.21      38.60       4.60      42.74        0.01    13.75   0.876
  B10                       48.80       0.00       0.00       5.21      38.60       4.60      42.74        0.01    13.75   0.876
  B8                        48.80       0.00       0.00       5.21      38.60       4.60      43.20        0.01    13.91   0.885
  B6                        48.80       0.00       0.00       5.21      38.60       4.60      42.74        0.01    13.75   0.876
  B4                        48.80       0.00       0.00       5.21      38.60       4.60      42.74        0.01    13.75   0.876
  B2                        48.80       0.00       0.00       5.21      38.60       4.60      42.74        0.01    13.75   0.876
  B29                       48.80       0.00       0.00       5.21      38.60       4.60      42.74        0.01    13.75   0.876
  B31                       48.80       0.00       0.00       5.21      38.60       4.60      42.74        0.01    13.75   0.876
  B33                       48.80       0.00       0.00       5.21      38.60       4.60      42.74        0.01    13.75   0.876
  B35.                      48.80       0.00       0.00       5.21      38.60       4.60      42.74        0.01    13.75   0.876
  B37                       48.80       0.00       0.00       5.21      38.60       4.60      42.74        0.01    13.75   0.876
  B39                       48.80       0.00       0.00       5.21      38.60       4.60      43.20        0.01    13.91   0.885
  B41                       48.80       0.00       0.00       5.21      38.60       4.60      42.74        0.01    13.75   0.876
  B43                       48.80       0.00       0.00       5.21      38.60       4.60      42.74        0.01    13.75   0.876
  B27                       48.80       0.00       0.00       4.24      40.39       3.69      43.71        0.03    27.04   0.896
  B25                       48.80       0.00       0.00       4.24      40.39       3.69      43.71        0.03    27.04   0.896
  B24                       48.80       0.00       0.00       4.24      40.39       3.69      44.08        0.03    27.26   0.903
  B67                       48.80       0.00       0.00       4.24      40.39       3.69      43.71        0.03    27.04   0.896
  B68                       48.80       0.00       0.00       4.24      40.39       3.69      43.71        0.03    27.04   0.896
  B98                       48.80       0.00       0.00       4.24      40.42       3.70      43.75        0.03    27.22   0.897
  B97                       48.80       0.00       0.00       4.24      40.32       3.65      43.61        0.03    26.58   0.894
  B46                       48.80       0.00       0.00       4.49      39.98       3.95      43.53        0.02    18.56   0.892
  B45                       48.80       0.00       0.00       4.32      40.22       3.73      43.58        0.03    31.22   0.893
  B47                       48.80       0.00       0.00       4.47      39.92       3.85      43.39        0.03    31.73   0.889
  B44                       48.80       0.00       0.00       5.21      38.57       4.56      42.67        0.02    18.13   0.874
  B122                      48.80       0.00       0.00       4.24      40.51       3.78      43.91        0.03    27.85   0.900
  B124                      48.80       0.00       0.00       5.21      38.64       4.67      42.84        0.01    13.95   0.878
  B126                      48.80       0.00       0.00       5.21      38.64       4.67      42.84        0.01    13.95   0.878
  B128                      48.80       0.00       0.00       5.21      38.64       4.67      42.84        0.01    13.95   0.878
  B130                      48.80       0.00       0.00       5.21      38.64       4.67      42.84        0.01    13.95   0.878
  B132                      48.80       0.00       0.00       5.21      38.66       4.70      42.89        0.01    14.02   0.879
  B135                      48.80       0.00       0.00       5.21      38.66       4.70      42.89        0.01    14.02   0.879
  B137                      48.80       0.00       0.00       5.21      38.66       4.70      42.89        0.01    14.02   0.879
  BBB118                    48.80       0.00       0.00       4.24      40.42       3.70      43.75        0.03    27.22   0.897
  B48                       48.80       0.00       0.00       4.24      40.39       3.69      43.71        0.03    27.04   0.896
  BB117                     48.80       0.00       0.00       4.24      40.42       3.70      43.75        0.03    27.22   0.897
  B83                       48.80       0.00       0.00       5.21      38.60       4.60      42.74        0.01    13.75   0.876
  B81                       48.80       0.00       0.00       5.21      38.60       4.60      42.74        0.01    13.75   0.876
  B79                       48.80       0.00       0.00       5.21      38.60       4.60      42.74        0.01    13.75   0.876
  B77                       48.80       0.00       0.00       5.21      38.60       4.60      42.74        0.01    13.75   0.876
  B75                       48.80       0.00       0.00       5.21      38.60       4.60      42.74        0.01    13.75   0.876
  B73                       48.80       0.00       0.00       5.21      38.60       4.60      42.74        0.01    13.75   0.876
  B71                       48.80       0.00       0.00       5.21      38.60       4.60      42.74        0.01    13.75   0.876
  B69                       48.80       0.00       0.00       5.21      38.60       4.60      42.74        0.01    13.75   0.876
  B70                       48.80       0.00       0.00       5.21      38.60       4.60      42.74        0.01    13.75   0.876
  B72                       48.80       0.00       0.00       5.21      38.60       4.60      42.74        0.01    13.75   0.876
  B74                       48.80       0.00       0.00       5.21      38.60       4.60      42.74        0.01    13.75   0.876
  B76                       48.80       0.00       0.00       5.21      38.60       4.60      42.74        0.01    13.75   0.876
  B78                       48.80       0.00       0.00       5.21      38.60       4.60      42.74        0.01    13.75   0.876
  B80                       48.80       0.00       0.00       5.21      38.60       4.60      42.74        0.01    13.75   0.876
  B82                       48.80       0.00       0.00       5.21      38.60       4.60      42.74        0.01    13.75   0.876
  B84                       48.80       0.00       0.00       5.21      38.60       4.60      42.74        0.01    13.75   0.876
  B85                       48.80       0.00       0.00       5.21      38.61       4.62      42.76        0.01    13.80   0.876
  B86                       48.80       0.00       0.00       5.21      38.61       4.62      42.76        0.01    13.80   0.876
  B88                       48.80       0.00       0.00       5.21      38.61       4.62      42.76        0.01    13.80   0.876
  B90                       48.80       0.00       0.00       5.21      38.61       4.62      42.76        0.01    13.80   0.876
  B92                       48.80       0.00       0.00       5.21      38.61       4.62      42.76        0.01    13.80   0.876
  B94                       48.80       0.00       0.00       5.21      38.61       4.62      42.76        0.01    13.80   0.876
  B96                       48.80       0.00       0.00       5.21      38.61       4.62      42.76        0.01    13.80   0.876
  B95                       48.80       0.00       0.00       5.21      38.61       4.62      42.76        0.01    13.80   0.876
  B93                       48.80       0.00       0.00       5.21      38.61       4.62      42.77        0.01    13.80   0.876
  B91                       48.80       0.00       0.00       5.21      38.61       4.62      42.76        0.01    13.80   0.876
  B89                       48.80       0.00       0.00       5.21      38.61       4.62      42.76        0.01    13.80   0.876
  B87                       48.80       0.00       0.00       5.21      38.61       4.62      42.76        0.01    13.80   0.876
  B116                      48.80       0.00       0.00       5.21      38.61       4.62      42.76        0.01    13.80   0.876
  B114                      48.80       0.00       0.00       5.21      38.61       4.62      42.76        0.01    13.80   0.876
  B112                      48.80       0.00       0.00       5.21      38.61       4.62      42.76        0.01    13.80   0.876
  B110                      48.80       0.00       0.00       5.21      38.61       4.62      42.76        0.01    13.80   0.876
  B50                       48.80       0.00       0.00       5.21      38.60       4.60      42.74        0.01    13.75   0.876
  B52                       48.80       0.00       0.00       5.21      38.60       4.60      42.74        0.01    13.75   0.876
  B54                       48.80       0.00       0.00       5.21      38.60       4.60      42.74        0.01    13.75   0.876
  B56                       48.80       0.00       0.00       5.21      38.60       4.60      42.74        0.01    13.75   0.876
  B58                       48.80       0.00       0.00       5.21      38.60       4.60      42.74        0.01    13.75   0.876
  B60                       48.80       0.00       0.00       5.21      38.60       4.60      42.74        0.01    13.75   0.876
  B106                      48.80       0.00       0.00       5.21      38.61       4.62      42.76        0.01    13.80   0.876
  B104                      48.80       0.00       0.00       5.21      38.61       4.62      42.76        0.01    13.80   0.876
  B102                      48.80       0.00       0.00       5.21      38.61       4.62      42.76        0.01    13.80   0.876
  B100                      48.80       0.00       0.00       4.24      40.42       3.70      43.75        0.03    27.22   0.897
  B66                       48.80       0.00       0.00       4.24      40.39       3.69      43.71        0.03    27.04   0.896
  B62                       48.80       0.00       0.00       5.21      38.60       4.60      42.74        0.01    13.75   0.876
  B64                       48.80       0.00       0.00       5.21      38.60       4.60      42.74        0.01    13.75   0.876
  B65                       48.80       0.00       0.00       4.24      40.39       3.69      43.71        0.03    27.04   0.896
  B63                       48.80       0.00       0.00       5.21      38.60       4.60      42.74        0.01    13.75   0.876
  B61                       48.80       0.00       0.00       5.21      38.60       4.60      42.74        0.01    13.75   0.876
  B59                       48.80       0.00       0.00       5.21      38.60       4.60      42.74        0.01    13.75   0.876
  B57                       48.80       0.00       0.00       5.21      38.60       4.60      42.74        0.01    13.75   0.876
  B55                       48.80       0.00       0.00       5.21      38.60       4.60      42.74        0.01    13.75   0.876
  B53                       48.80       0.00       0.00       5.21      38.60       4.60      42.74        0.01    13.75   0.876
  B51                       48.80       0.00       0.00       5.21      38.60       4.60      42.74        0.01    13.75   0.876
  B49                       48.80       0.00       0.00       5.21      38.60       4.60      42.74        0.01    13.75   0.876
  B138                      48.80       0.00       0.00       3.94      41.12       3.53      44.29        0.03    31.59   0.908
  B188                      48.80       0.00       0.00       4.47      40.08       3.97      44.05        0.03    30.66   0.903
  B189                      48.80       0.00       0.00       5.21      38.65       4.69      43.35        0.01    14.19   0.888
  B190                      48.80       0.00       0.00       5.21      38.65       4.69      43.35        0.01    14.19   0.888
  B191                      48.80       0.00       0.00       5.21      38.65       4.69      43.35        0.01    14.19   0.888
  B192                      48.80       0.00       0.00       5.21      38.65       4.69      43.35        0.01    14.19   0.888
  B193                      48.80       0.00       0.00       5.21      38.65       4.69      43.35        0.01    14.19   0.888
  B194                      48.80       0.00       0.00       4.24      40.52       3.79      44.31        0.03    28.18   0.908
  B195                      48.80       0.00       0.00       4.24      40.39       3.69      44.08        0.03    27.28   0.903
  B196                      48.80       0.00       0.00       5.21      38.60       4.60      43.20        0.01    13.92   0.885
  B197                      48.80       0.00       0.00       5.21      38.60       4.60      43.20        0.01    13.92   0.885
  B198                      48.80       0.00       0.00       5.21      38.60       4.60      43.20        0.01    13.92   0.885
  B199                      48.80       0.00       0.00       5.21      38.60       4.60      43.20        0.01    13.92   0.885
  B204                      48.80       0.00       0.00       4.24      40.39       3.69      44.08        0.03    27.28   0.903
  B203                      48.80       0.00       0.00       5.21      38.60       4.60      43.20        0.01    13.92   0.885
  B202                      48.80       0.00       0.00       5.21      38.60       4.60      43.20        0.01    13.92   0.885
  B200                      48.80       0.00       0.00       5.21      38.60       4.60      43.20        0.01    13.92   0.885
  B201                      48.80       0.00       0.00       5.21      38.60       4.60      43.20        0.01    13.92   0.885
  B176                      48.80       0.00       0.00       3.92      41.15       3.50      44.30        0.03    30.90   0.908
  B177                      48.80       0.00       0.00       5.21      38.65       4.69      42.88        0.01    14.00   0.879
  B178                      48.80       0.00       0.00       5.21      38.65       4.69      43.35        0.01    14.19   0.888
  B179                      48.80       0.00       0.00       5.21      38.65       4.69      43.35        0.01    14.19   0.888
  B180                      48.80       0.00       0.00       5.21      38.65       4.69      43.35        0.01    14.19   0.888
  B181                      48.80       0.00       0.00       5.21      38.65       4.69      43.35        0.01    14.19   0.888
  B182                      48.80       0.00       0.00       5.21      38.65       4.69      43.35        0.01    14.19   0.888
  B183                      48.80       0.00       0.00       5.21      38.60       4.60      43.20        0.01    13.92   0.885
  B184                      48.80       0.00       0.00       5.21      38.60       4.60      43.20        0.01    13.92   0.885
  B185                      48.80       0.00       0.00       5.21      38.60       4.60      43.20        0.01    13.92   0.885
  B186                      48.80       0.00       0.00       5.21      38.60       4.60      43.20        0.01    13.92   0.885
  B187                      48.80       0.00       0.00       4.24      40.39       3.69      43.71        0.03    27.06   0.896
  B165                      48.80       0.00       0.00       4.24      40.48       3.75      43.86        0.03    27.66   0.899
  BB166                     48.80       0.00       0.00       5.21      38.64       4.66      43.30        0.01    14.12   0.887
  BB167                     48.80       0.00       0.00       5.21      38.64       4.66      43.30        0.01    14.12   0.887
  B168                      48.80       0.00       0.00       5.21      38.66       4.70      43.36        0.01    14.21   0.889
  B169                      48.80       0.00       0.00       5.21      38.66       4.70      42.89        0.01    14.02   0.879
  B170                      48.80       0.00       0.00       5.21      38.66       4.70      42.89        0.01    14.02   0.879
  B171                      48.80       0.00       0.00       5.21      38.66       4.70      42.89        0.01    14.02   0.879
  B172                      48.80       0.00       0.00       5.21      38.66       4.70      42.89        0.01    14.02   0.879
  B173                      48.80       0.00       0.00       5.21      38.66       4.71      42.90        0.01    14.03   0.879
  B174                      48.80       0.00       0.00       5.21      38.66       4.71      42.90        0.01    14.03   0.879
  B175                      48.80       0.00       0.00       4.27      40.50       3.83      43.94        0.03    28.75   0.900
  B150                      48.80       0.00       0.00       3.62      41.76       3.25      45.02        0.03    29.48   0.923
  B151                      48.80       0.00       0.00       4.89      39.29       4.41      43.71        0.02    16.71   0.896
  B152                      48.80       0.00       0.00       4.96      39.15       4.48      43.63        0.02    16.68   0.894
  B153                      48.80       0.00       0.00       5.04      39.00       4.54      43.54        0.01    15.43   0.892
  B154                      48.80       0.00       0.00       5.14      38.80       4.63      43.43        0.02    16.07   0.890
  B155                      48.80       0.00       0.00       5.14      38.80       4.63      43.43        0.02    16.74   0.890
  B157                      48.80       0.00       0.00       5.16      38.76       4.66      43.41        0.01    14.58   0.890
  B158                      48.80       0.00       0.00       5.21      38.66       4.70      42.89        0.01    14.59   0.879
  B159                      48.80       0.00       0.00       5.29      38.49       4.72      42.73        0.01    15.42   0.876
  B160                      48.80       0.00       0.00       5.21      38.66       4.70      42.89        0.01    14.02   0.879
  B161                      48.80       0.00       0.00       5.41      38.23       4.81      42.56        0.02    17.86   0.872
  B162                      48.80       0.00       0.00       5.21      38.64       4.66      42.83        0.01    13.93   0.878
  B163                      48.80       0.00       0.00       4.57      39.84       4.01      43.45        0.03    31.72   0.890
  B164                      48.80       0.00       0.00       4.09      40.73       3.58      43.95        0.04    40.31   0.901
  B210                      48.80       0.00       0.00       8.73      31.56      22.11      37.89        0.36   281.14   0.776
  B205                      48.80       0.00       0.00       4.19      40.49       3.64      44.14        0.03    28.44   0.904
  B206                      48.80       0.00       0.00       5.29      38.45       4.66      43.10        0.01    15.16   0.883
  B207                      48.80       0.00       0.00       5.36      38.29       4.71      43.00        0.02    16.38   0.881
  B208                      48.80       0.00       0.00       5.44      38.13       4.76      42.89        0.02    18.04   0.879
  B209                      48.80       0.00       0.00       5.49      38.02       4.78      42.80        0.02    20.22   0.877
  B211                      48.80       0.00       0.00       4.37      40.13       3.78      43.90        0.03    30.16   0.900
  B212                      48.80       0.00       0.00       5.36      38.34       4.78      43.11        0.01    14.60   0.883
  B213                      48.80       0.00       0.00       5.44      38.18       4.83      43.01        0.02    16.42   0.881
  B214                      48.80       0.00       0.00       5.06      38.86       4.43      43.29        0.03    29.21   0.887
  B215                      48.80       0.00       0.00       5.49      38.08       4.86      42.94        0.02    23.12   0.880
  B216                      48.80       0.00       0.00       5.04      38.93       4.43      43.36        0.03    32.97   0.888
  B217                      48.80       0.00       0.00       5.21      38.62       4.63      43.26        0.01    14.03   0.886
  B218                      48.80       0.00       0.00       5.21      38.62       4.63      43.26        0.01    14.03   0.886
  B219                      48.80       0.00       0.00       5.21      38.62       4.63      43.26        0.01    14.03   0.886
  B220                      48.80       0.00       0.00       5.44      38.17       4.80      42.97        0.02    17.20   0.881
  B221                      48.80       0.00       0.00       4.59      39.81       4.05      43.86        0.04    39.12   0.899
  B224                      48.80       0.00       0.00       5.21      38.65       4.69      43.34        0.01    14.18   0.888
  B223                      48.80       0.00       0.00       5.21      38.65       4.69      43.34        0.01    14.18   0.888
  B222                      48.80       0.00       0.00       3.92      41.13       3.48      44.60        0.02    24.19   0.914
  
  
  ******************
  Node Depth Summary
  ******************
  
  ---------------------------------------------------------------------------------
                                 Average  Maximum  Maximum  Time of Max    Reported
                                   Depth    Depth      HGL   Occurrence   Max Depth
  Node                 Type       Meters   Meters   Meters  days hr:min      Meters
  ---------------------------------------------------------------------------------
  P1                   JUNCTION     0.14     1.14  1048.33     0  00:29        1.05
  P2                   JUNCTION     0.19     1.30  1048.32     0  00:29        1.21
  P3                   JUNCTION     0.21     1.56  1048.25     0  00:30        1.46
  P4                   JUNCTION     0.28     1.73  1048.25     0  00:29        1.63
  P5                   JUNCTION     0.25     1.76  1047.94     0  00:29        1.67
  P6                   JUNCTION     0.33     1.93  1047.94     0  00:29        1.84
  P7                   JUNCTION     0.34     1.83  1047.62     0  00:29        1.74
  P8                   JUNCTION     0.19     1.20  1046.75     0  00:29        1.15
  P9                   JUNCTION     0.30     1.37  1046.74     0  00:29        1.32
  P10                  JUNCTION     0.06     0.23  1045.18     0  00:29        0.22
  P11                  JUNCTION     0.16     0.40  1045.17     0  00:29        0.40
  P12                  JUNCTION     0.08     0.33  1044.84     0  00:29        0.33
  P13                  JUNCTION     0.19     0.50  1044.83     0  00:29        0.50
  P17                  JUNCTION     0.06     1.00  1047.16     0  00:27        0.64
  P18                  JUNCTION     0.10     1.00  1046.99     0  00:27        0.79
  P19                  JUNCTION     0.05     0.93  1046.89     0  00:27        0.62
  P20                  JUNCTION     0.15     1.08  1046.57     0  00:29        1.08
  P23                  JUNCTION     0.05     0.75  1046.42     0  00:27        0.62
  P24                  JUNCTION     0.17     1.12  1046.38     0  00:27        1.01
  P25                  JUNCTION     0.05     0.28  1045.00     0  00:28        0.21
  P26                  JUNCTION     0.13     0.37  1044.94     0  00:29        0.36
  P27                  JUNCTION     0.11     0.36  1044.57     0  00:28        0.36
  P28                  JUNCTION     0.15     0.40  1044.57     0  00:29        0.40
  P29                  JUNCTION     0.05     0.19  1044.21     0  00:29        0.17
  P30                  JUNCTION     0.14     0.37  1044.22     0  00:28        0.37
  P31                  JUNCTION     0.44     0.55  1043.94     0  00:27        0.55
  P32                  JUNCTION     0.18     0.46  1043.69     0  00:29        0.46
  P33                  JUNCTION     0.04     0.24  1042.67     0  00:29        0.15
  P34                  JUNCTION     0.14     0.35  1042.62     0  00:29        0.35
  P35                  JUNCTION     0.03     0.18  1040.86     0  00:29        0.10
  P36                  JUNCTION     0.13     0.31  1040.82     0  00:29        0.31
  P37                  JUNCTION     0.04     0.15  1037.60     0  00:30        0.11
  P38                  JUNCTION     0.13     0.33  1037.61     0  00:29        0.33
  P39                  JUNCTION     0.04     0.72  1048.89     0  00:29        0.38
  P40                  JUNCTION     0.08     0.86  1048.86     0  00:29        0.54
  P41                  JUNCTION     0.12     1.08  1048.57     0  00:26        0.90
  P42                  JUNCTION     0.26     1.60  1048.52     0  00:29        1.47
  P43                  JUNCTION     0.15     1.30  1048.21     0  00:30        1.18
  P44                  JUNCTION     0.23     1.47  1048.21     0  00:30        1.34
  P45                  JUNCTION     0.16     1.33  1047.62     0  00:29        1.27
  P46                  JUNCTION     0.24     1.50  1047.62     0  00:29        1.44
  P47                  JUNCTION     0.15     1.22  1046.56     0  00:29        1.20
  P48                  JUNCTION     0.23     1.39  1046.55     0  00:29        1.37
  P49                  JUNCTION     0.13     1.27  1045.77     0  00:26        1.07
  P50                  JUNCTION     0.22     1.25  1045.58     0  00:26        1.24
  P51                  JUNCTION     0.04     0.13  1042.84     0  00:30        0.10
  P52                  JUNCTION     0.12     0.31  1042.85     0  00:29        0.31
  P53                  JUNCTION     0.05     0.15  1038.72     0  00:29        0.15
  P54                  JUNCTION     0.12     0.30  1038.70     0  00:29        0.30
  P55                  JUNCTION     0.17     0.43  1037.69     0  00:29        0.43
  P57                  JUNCTION     0.14     0.36  1037.21     0  00:29        0.36
  P58                  JUNCTION     0.23     0.63  1036.30     0  00:29        0.63
  P22                  JUNCTION     0.06     0.88  1046.41     0  00:27        0.75
  P21                  JUNCTION     0.05     0.79  1046.49     0  00:27        0.58
  P16                  JUNCTION     0.10     0.23  1044.26     0  00:29        0.23
  P14                  JUNCTION     0.23     0.57  1044.73     0  00:29        0.56
  P84                  JUNCTION     0.01     0.04  1044.32     0  00:28        0.04
  P85                  JUNCTION     0.03     0.06  1044.32     0  00:29        0.06
  P86                  JUNCTION     0.04     0.11  1040.62     0  00:29        0.11
  P87                  JUNCTION     0.08     0.21  1037.27     0  00:29        0.21
  P88                  JUNCTION     0.07     0.19  1036.85     0  00:27        0.18
  P89                  JUNCTION     0.24     0.70  1036.76     0  00:29        0.70
  P59                  JUNCTION     0.04     0.09  1047.77     0  00:29        0.09
  P61                  JUNCTION     0.08     0.22  1046.81     0  00:29        0.22
  P62                  JUNCTION     0.11     0.31  1046.53     0  00:29        0.31
  P63                  JUNCTION     0.11     0.33  1046.34     0  00:29        0.33
  P64                  JUNCTION     0.17     0.42  1045.90     0  00:29        0.42
  P65                  JUNCTION     0.19     0.52  1046.03     0  00:28        0.52
  P66                  JUNCTION     0.15     0.38  1045.70     0  00:29        0.37
  P67                  JUNCTION     0.12     0.30  1044.68     0  00:29        0.30
  P68                  JUNCTION     0.05     0.12  1044.70     0  00:29        0.12
  P69                  JUNCTION     0.12     0.29  1042.04     0  00:29        0.29
  P70                  JUNCTION     0.04     0.11  1042.05     0  00:29        0.11
  P71                  JUNCTION     0.13     0.32  1038.59     0  00:29        0.32
  P72                  JUNCTION     0.05     0.12  1038.59     0  00:25        0.12
  P73                  JUNCTION     0.14     0.39  1037.60     0  00:29        0.39
  P74                  JUNCTION     0.20     0.51  1037.31     0  00:29        0.51
  P75                  JUNCTION     0.20     0.53  1037.10     0  00:29        0.53
  P76                  JUNCTION     0.21     0.62  1036.84     0  00:29        0.60
  P77                  JUNCTION     0.07     0.47  1036.89     0  00:29        0.42
  P78                  JUNCTION     0.09     0.25  1039.04     0  00:29        0.25
  P79                  JUNCTION     0.06     0.17  1038.76     0  00:29        0.17
  P80                  JUNCTION     0.06     0.15  1043.35     0  00:29        0.15
  P81                  JUNCTION     0.06     0.16  1043.38     0  00:29        0.16
  P82                  JUNCTION     0.05     0.12  1046.30     0  00:28        0.12
  P83                  JUNCTION     0.07     0.18  1046.38     0  00:29        0.18
  P60                  JUNCTION     0.07     0.18  1047.33     0  00:29        0.18
  P62A                 JUNCTION     0.09     0.29  1046.53     0  00:29        0.29
  P61A                 JUNCTION     0.07     0.21  1046.81     0  00:29        0.21
  P90                  JUNCTION     0.04     0.11  1047.24     0  00:29        0.11
  P91                  JUNCTION     0.04     0.11  1047.04     0  00:29        0.11
  P92                  JUNCTION     0.04     0.12  1046.21     0  00:29        0.12
  P93                  JUNCTION     0.08     0.21  1046.10     0  00:29        0.21
  P94                  JUNCTION     0.04     0.09  1045.83     0  00:29        0.09
  P95                  JUNCTION     0.08     0.23  1045.76     0  00:29        0.23
  P96                  JUNCTION     0.04     0.11  1045.49     0  00:26        0.11
  P97                  JUNCTION     0.08     0.23  1045.41     0  00:29        0.23
  E1                   OUTFALL      0.23     0.63  1035.63     0  00:29        0.62
  E32                  OUTFALL      0.24     0.70  1036.66     0  00:29        0.70
  E33                  OUTFALL      0.08     0.23  1044.61     0  00:29        0.23
  
  
  *******************
  Node Inflow Summary
  *******************
  
  -------------------------------------------------------------------------------------------------
                                  Maximum  Maximum                  Lateral       Total        Flow
                                  Lateral    Total  Time of Max      Inflow      Inflow     Balance
                                   Inflow   Inflow   Occurrence      Volume      Volume       Error
  Node                 Type           LPS      LPS  days hr:min    10^6 ltr    10^6 ltr     Percent
  -------------------------------------------------------------------------------------------------
  P1                   JUNCTION     55.14    55.14     0  00:29       0.054       0.054      -0.022
  P2                   JUNCTION     55.31   135.78     0  00:26      0.0541       0.108      -0.001
  P3                   JUNCTION     54.98   202.71     0  00:25      0.0538      0.0541      -0.192
  P4                   JUNCTION     54.98   242.67     0  00:26      0.0538       0.216       0.122
  P5                   JUNCTION     68.49   112.39     0  00:25      0.0676      0.0677       0.035
  P6                   JUNCTION     55.14   283.15     0  00:26       0.054       0.337       0.030
  P7                   JUNCTION     54.07   309.93     0  00:29       0.054       0.391       0.018
  P8                   JUNCTION     68.27    68.27     0  00:29      0.0674      0.0674      -0.005
  P9                   JUNCTION     41.24   400.05     0  00:28      0.0404       0.499       0.011
  P10                  JUNCTION     41.40    41.40     0  00:29      0.0405      0.0405       0.017
  P11                  JUNCTION     41.24   461.88     0  00:29      0.0404        0.58       0.017
  P12                  JUNCTION     58.71    58.71     0  00:29      0.0583      0.0583       0.008
  P13                  JUNCTION     50.43   566.29     0  00:29      0.0497       0.688       0.014
  P17                  JUNCTION     68.73    68.73     0  00:29      0.0673      0.0673      -0.006
  P18                  JUNCTION     68.73   141.19     0  00:27      0.0673       0.135       0.015
  P19                  JUNCTION     68.27    68.27     0  00:29      0.0674      0.0674      -0.004
  P20                  JUNCTION     41.24   247.57     0  00:27      0.0404       0.242       0.011
  P23                  JUNCTION     27.04    27.04     0  00:29       0.027       0.027       0.009
  P24                  JUNCTION     27.04   320.92     0  00:29       0.027       0.324       0.020
  P25                  JUNCTION     41.24    41.24     0  00:29      0.0404      0.0404       0.055
  P26                  JUNCTION     41.24   432.02     0  00:29      0.0404       0.404       0.014
  P27                  JUNCTION     41.24    41.24     0  00:29      0.0404      0.0404       0.010
  P28                  JUNCTION     41.24   488.39     0  00:28      0.0404       0.485       0.025
  P29                  JUNCTION     54.53    54.53     0  00:29      0.0539      0.0539       0.009
  P30                  JUNCTION     59.22   599.95     0  00:28      0.0589       0.598       0.017
  P31                  JUNCTION     27.89    27.89     0  00:29      0.0271      0.0271       1.712
  P32                  JUNCTION      0.00  1178.62     0  00:29           0        1.31       0.011
  P33                  JUNCTION     42.07    42.07     0  00:29      0.0405      0.0405       0.068
  P34                  JUNCTION      0.00  1243.02     0  00:29           0        1.35       0.011
  P35                  JUNCTION     28.04    28.04     0  00:29       0.027       0.027       0.044
  P36                  JUNCTION      0.00  1269.50     0  00:29           0        1.38       0.011
  P37                  JUNCTION     58.04    58.04     0  00:29      0.0562      0.0562      -0.001
  P38                  JUNCTION      0.00  1313.97     0  00:29           0        1.43       0.003
  P39                  JUNCTION     27.60    27.60     0  00:29      0.0269      0.0269      -0.025
  P40                  JUNCTION     55.20    89.19     0  00:29      0.0539      0.0808      -0.037
  P41                  JUNCTION     67.98    67.98     0  00:29      0.0674      0.0674      -0.094
  P42                  JUNCTION     68.61   231.56     0  00:26      0.0674       0.216       0.154
  P43                  JUNCTION     41.02    78.38     0  00:26      0.0405      0.0406      -0.051
  P44                  JUNCTION     41.02   283.99     0  00:26      0.0405       0.297       0.070
  P45                  JUNCTION     55.20    73.55     0  00:26      0.0539      0.0539      -0.020
  P46                  JUNCTION     55.20   351.56     0  00:26      0.0539       0.404       0.001
  P47                  JUNCTION     68.61    68.61     0  00:29      0.0674      0.0674      -0.014
  P48                  JUNCTION     68.61   438.78     0  00:29      0.0674       0.539       0.016
  P49                  JUNCTION     27.82    46.31     0  00:26      0.0271      0.0272      -0.042
  P50                  JUNCTION     27.85   480.80     0  00:29      0.0271       0.593       0.000
  P51                  JUNCTION     41.86    41.86     0  00:29      0.0405      0.0405       0.010
  P52                  JUNCTION     41.86   563.90     0  00:29      0.0405       0.674       0.015
  P53                  JUNCTION     87.61    87.61     0  00:29      0.0848      0.0848       0.001
  P54                  JUNCTION     56.02   706.19     0  00:29       0.054       0.813       0.007
  P55                  JUNCTION     29.34   734.78     0  00:29      0.0285       0.841       0.008
  P57                  JUNCTION      0.00   734.22     0  00:29           0       0.841       0.055
  P58                  JUNCTION      0.00  2038.82     0  00:29           0        2.28       0.004
  P22                  JUNCTION      0.00    37.83     0  00:26           0      0.0273      -0.057
  P21                  JUNCTION     27.04    36.54     0  00:26       0.027      0.0271       0.021
  P16                  JUNCTION      0.00   561.98     0  00:29           0       0.687       0.015
  P14                  JUNCTION      0.00   563.40     0  00:29           0       0.688       0.030
  P84                  JUNCTION      0.00     0.38     0  00:24           0    4.82e-05       0.301
  P85                  JUNCTION     31.72    31.79     0  00:29      0.0312      0.0313       0.022
  P86                  JUNCTION     64.60    96.32     0  00:29      0.0625      0.0937      -0.005
  P87                  JUNCTION     32.14   128.19     0  00:29      0.0309       0.125       0.021
  P88                  JUNCTION      0.00   127.80     0  00:29           0       0.125       0.145
  P89                  JUNCTION      0.00  1379.31     0  00:29           0        1.47       0.009
  P59                  JUNCTION     60.23    60.23     0  00:29       0.059       0.059       0.002
  P61                  JUNCTION     38.26   127.98     0  00:29       0.038       0.127       0.016
  P62                  JUNCTION     59.98   187.57     0  00:29      0.0594       0.187       0.024
  P63                  JUNCTION     27.28   213.02     0  00:29      0.0272       0.214       0.032
  P64                  JUNCTION     41.75   532.55     0  00:29      0.0408       0.616       0.057
  P65                  JUNCTION    281.14   281.14     0  00:29       0.361       0.361       0.011
  P66                  JUNCTION     27.83   557.82     0  00:29      0.0272       0.643       0.055
  P67                  JUNCTION     69.03   690.00     0  00:29      0.0681       0.778       0.049
  P68                  JUNCTION     68.80    68.80     0  00:29      0.0678      0.0678       0.004
  P69                  JUNCTION     42.37   784.11     0  00:29       0.041       0.874       0.040
  P70                  JUNCTION     56.49    56.49     0  00:29      0.0546      0.0546      -0.002
  P71                  JUNCTION     56.77   909.35     0  00:29      0.0546       0.999       0.021
  P72                  JUNCTION     73.29    73.29     0  00:29      0.0709      0.0709      -0.000
  P73                  JUNCTION     30.66   938.11     0  00:29      0.0298        1.03       0.008
  P74                  JUNCTION      0.00   938.90     0  00:29           0        1.03       0.020
  P75                  JUNCTION      0.00   939.46     0  00:29           0        1.03       0.039
  P76                  JUNCTION      0.00  1010.34     0  00:29           0        1.06       0.034
  P77                  JUNCTION     28.75    64.79     0  00:26      0.0279       0.033       0.115
  P78                  JUNCTION     42.09   252.69     0  00:29      0.0405       0.246       0.010
  P79                  JUNCTION     46.17   298.42     0  00:29      0.0447        0.29      -0.008
  P80                  JUNCTION     56.27   211.92     0  00:28      0.0542       0.205       0.005
  P81                  JUNCTION     44.68    44.68     0  00:29       0.043       0.043       0.006
  P82                  JUNCTION     55.89   117.74     0  00:28      0.0544       0.108      -0.018
  P83                  JUNCTION     54.24    54.24     0  00:29      0.0534      0.0534       0.075
  P60                  JUNCTION     30.16    90.36     0  00:29      0.0303      0.0893       0.033
  P62A                 JUNCTION      0.00     1.76     0  00:25           0    0.000375       0.257
  P61A                 JUNCTION      0.00     1.49     0  00:24           0    0.000252       0.466
  P90                  JUNCTION     56.09    56.09     0  00:29      0.0549      0.0549       0.009
  P91                  JUNCTION      0.00    56.07     0  00:29           0      0.0549      -0.002
  P92                  JUNCTION     59.30    59.30     0  00:29      0.0577      0.0577       0.005
  P93                  JUNCTION      0.00   115.24     0  00:29           0       0.113       0.022
  P94                  JUNCTION     39.12    39.12     0  00:29      0.0383      0.0383       0.005
  P95                  JUNCTION      0.00   153.74     0  00:29           0       0.151       0.029
  P96                  JUNCTION     52.56    52.56     0  00:29      0.0509      0.0509       0.004
  P97                  JUNCTION      0.00   205.76     0  00:29           0       0.202       0.014
  E1                   OUTFALL       0.00  2034.88     0  00:29           0        2.28       0.000
  E32                  OUTFALL       0.00  1377.54     0  00:29           0        1.47       0.000
  E33                  OUTFALL       0.00   205.52     0  00:29           0       0.202       0.000
  
  
  **********************
  Node Surcharge Summary
  **********************
  
  Surcharging occurs when water rises above the top of the highest conduit.
  ---------------------------------------------------------------------
                                               Max. Height   Min. Depth
                                   Hours       Above Crown    Below Rim
  Node                 Type      Surcharged         Meters       Meters
  ---------------------------------------------------------------------
  P1                   JUNCTION        0.15          0.736        0.000
  P2                   JUNCTION        0.16          0.902        0.000
  P3                   JUNCTION        0.17          1.163        0.000
  P4                   JUNCTION        0.18          1.331        0.000
  P5                   JUNCTION        0.19          1.357        0.000
  P6                   JUNCTION        0.20          1.526        0.000
  P7                   JUNCTION        0.21          1.430        0.000
  P8                   JUNCTION        0.19          0.801        0.000
  P9                   JUNCTION        0.23          0.971        0.000
  P17                  JUNCTION        0.03          0.600        0.000
  P18                  JUNCTION        0.04          0.601        0.000
  P19                  JUNCTION        0.03          0.531        0.069
  P20                  JUNCTION        0.08          0.685        0.000
  P23                  JUNCTION        0.03          0.353        0.247
  P24                  JUNCTION        0.11          0.722        0.083
  P31                  JUNCTION        1.09          0.151        1.249
  P39                  JUNCTION        0.01          0.322        0.278
  P40                  JUNCTION        0.05          0.460        0.140
  P41                  JUNCTION        0.14          0.675        0.000
  P42                  JUNCTION        0.15          1.198        0.000
  P43                  JUNCTION        0.14          0.903        0.000
  P44                  JUNCTION        0.14          1.068        0.000
  P45                  JUNCTION        0.14          0.932        0.000
  P46                  JUNCTION        0.14          1.099        0.000
  P47                  JUNCTION        0.14          0.824        0.000
  P48                  JUNCTION        0.14          0.994        0.000
  P49                  JUNCTION        0.14          0.866        0.094
  P50                  JUNCTION        0.16          0.851        0.109
  P22                  JUNCTION        0.06          0.476        0.000
  P21                  JUNCTION        0.03          0.385        0.090
  P65                  JUNCTION        0.14          0.124        0.646
  
  
  *********************
  Node Flooding Summary
  *********************
  
  Flooding refers to all water that overflows a node, whether it ponds or not.
  --------------------------------------------------------------------------
                                                             Total   Maximum
                                 Maximum   Time of Max       Flood    Ponded
                        Hours       Rate    Occurrence      Volume     Depth
  Node                 Flooded       LPS   days hr:min    10^6 ltr    Meters
  --------------------------------------------------------------------------
  P1                      0.06     40.56      0  00:26       0.000     0.136
  P2                      0.11     45.14      0  00:26       0.002     0.302
  P3                      0.14    188.52      0  00:25       0.001     0.583
  P4                      0.16    134.48      0  00:26       0.008     0.751
  P5                      0.16     18.24      0  00:26       0.001     0.757
  P6                      0.18     80.51      0  00:25       0.007     0.926
  P7                      0.18     66.63      0  00:25       0.005     0.830
  P8                      0.11     16.11      0  00:25       0.000     0.201
  P9                      0.16     41.41      0  00:25       0.004     0.371
  P18                     0.01      6.75      0  00:27       0.000     0.001
  P20                     0.03     20.58      0  00:27       0.001     0.085
  P41                     0.01     42.67      0  00:26       0.000     0.000
  P42                     0.14     88.97      0  00:26       0.005     0.523
  P43                     0.09     66.74      0  00:26       0.001     0.303
  P44                     0.13     76.38      0  00:26       0.004     0.468
  P45                     0.10     61.85      0  00:26       0.001     0.332
  P46                     0.13     65.37      0  00:26       0.004     0.499
  P47                     0.07     25.85      0  00:26       0.000     0.224
  P48                     0.12     41.91      0  00:26       0.003     0.394
  P22                     0.01      3.72      0  00:27       0.000     0.001
  
  
  ***********************
  Outfall Loading Summary
  ***********************
  
  -----------------------------------------------------------
                         Flow       Avg       Max       Total
                         Freq      Flow      Flow      Volume
  Outfall Node           Pcnt       LPS       LPS    10^6 ltr
  -----------------------------------------------------------
  E1                    93.77    546.40   2034.88       2.275
  E32                   94.01    352.07   1377.54       1.470
  E33                   93.84     48.41    205.52       0.202
  -----------------------------------------------------------
  System                93.87    946.87   3613.18       3.947
  
  
  
  ********************
  Link Flow Summary
  ********************
  
  -----------------------------------------------------------------------------
                                 Maximum  Time of Max   Maximum    Max/    Max/
                                  |Flow|   Occurrence   |Veloc|    Full    Full
  Link                 Type          LPS  days hr:min     m/sec    Flow   Depth
  -----------------------------------------------------------------------------
  G1                   CONDUIT     84.30     0  00:26      1.13    0.26    1.00
  G2                   CONDUIT    135.55     0  00:26      1.22    0.65    1.00
  G3                   CONDUIT    154.34     0  00:25      1.29    0.52    1.00
  G4                   CONDUIT    172.59     0  00:26      1.46    0.82    1.00
  G5                   CONDUIT     81.07     0  00:25      0.76    0.25    1.00
  G6                   CONDUIT    257.84     0  00:29      2.05    1.20    1.00
  G7                   CONDUIT    300.91     0  00:30      2.39    1.45    1.00
  G8                   CONDUIT     73.56     0  00:36      0.77    0.22    1.00
  G38                  CONDUIT     36.10     0  00:29      0.97    0.11    1.00
  G39                  CONDUIT     89.24     0  00:29      0.87    0.29    1.00
  G40                  CONDUIT    142.83     0  00:34      1.22    0.24    1.00
  G41                  CONDUIT    223.92     0  00:34      1.78    1.74    1.00
  G42                  CONDUIT     88.98     0  00:26      0.71    0.28    1.00
  G43                  CONDUIT    269.99     0  00:34      2.15    1.14    1.00
  G44                  CONDUIT     94.42     0  00:26      0.80    0.29    1.00
  G45                  CONDUIT    328.31     0  00:34      2.64    1.11    1.00
  G46                  CONDUIT     90.84     0  00:26      0.92    0.28    1.00
  G47                  CONDUIT    434.00     0  00:30      3.45    1.10    1.00
  G48                  CONDUIT     32.33     0  00:26      0.49    0.10    1.00
  G49                  CONDUIT    480.67     0  00:29      4.11    1.19    0.89
  G50                  CONDUIT     41.79     0  00:28      0.78    0.13    0.53
  G51                  CONDUIT    563.14     0  00:29      5.51    0.94    0.76
  G52                  CONDUIT     87.60     0  00:29      1.27    0.27    0.57
  G53                  CONDUIT    705.67     0  00:29      3.93    0.50    0.61
  G54                  CONDUIT    734.22     0  00:29      3.72    0.86    0.66
  G56                  CONDUIT    733.83     0  00:29      3.93    0.67    0.68
  G16                  CONDUIT     73.92     0  00:27      1.18    0.23    1.00
  G17                  CONDUIT    142.76     0  00:27      1.30    0.68    1.00
  G18                  CONDUIT     81.26     0  00:29      0.96    0.15    1.00
  G19                  CONDUIT    243.59     0  00:29      1.94    1.15    1.00
  G20                  CONDUIT     37.83     0  00:26      1.48    0.12    1.00
  G21                  CONDUIT     41.76     0  00:31      0.38    0.12    1.00
  G22                  CONDUIT     41.33     0  00:27      0.53    0.08    1.00
  G23                  CONDUIT    320.76     0  00:29      2.57    1.54    0.97
  G24                  CONDUIT     70.16     0  00:29      0.75    0.23    0.78
  G25                  CONDUIT    408.32     0  00:29      2.17    0.66    0.64
  G26                  CONDUIT     41.50     0  00:28      0.44    0.26    0.95
  G27                  CONDUIT    483.52     0  00:29      2.53    0.79    0.64
  G28                  CONDUIT     58.77     0  00:28      0.76    0.18    0.70
  G9                   CONDUIT    385.47     0  00:29      3.07    1.85    1.00
  G10                  CONDUIT     44.42     0  00:28      0.54    0.14    0.79
  G11                  CONDUIT    460.65     0  00:29      2.08    0.75    0.75
  G12                  CONDUIT     68.57     0  00:25      0.69    0.21    0.91
  G13                  CONDUIT    563.40     0  00:29      2.12    0.88    0.89
  G14                  CONDUIT    561.98     0  00:29      2.84    1.76    0.67
  G29                  CONDUIT    596.72     0  00:29      3.29    0.70    0.61
  G15                  CONDUIT    561.87     0  00:29      3.40    0.32    0.58
  G30                  CONDUIT     27.90     0  00:28      0.37    0.05    0.58
  G31                  CONDUIT   1181.18     0  00:29      4.66    0.62    0.51
  G33                  CONDUIT   1234.34     0  00:29      6.34    0.39    0.41
  G34                  CONDUIT     41.42     0  00:28      0.86    0.13    0.60
  G35                  CONDUIT   1262.42     0  00:29      6.72    0.32    0.40
  G36                  CONDUIT     57.98     0  00:28      1.04    0.18    0.58
  G37                  CONDUIT   1310.57     0  00:29      6.21    0.36    0.45
  G32                  CONDUIT     62.83     0  00:29      1.06    0.19    0.72
  G57                  CONDUIT   2034.88     0  00:29      4.79    0.96    0.79
  G58                  CONDUIT     60.21     0  00:29      1.58    0.11    0.34
  G59                  CONDUIT     89.87     0  00:29      1.60    0.43    0.46
  G61                  CONDUIT    127.73     0  00:29      1.44    0.60    0.66
  G63                  CONDUIT    186.16     0  00:29      1.75    0.91    0.80
  G64                  CONDUIT    211.49     0  00:29      1.76    0.98    0.91
  G66                  CONDUIT    281.18     0  00:29      2.24    2.10    1.00
  G65                  CONDUIT    530.59     0  00:29      2.67    0.84    0.66
  G67                  CONDUIT    558.13     0  00:29      3.44    0.69    0.56
  G68                  CONDUIT     68.77     0  00:29      1.11    0.20    0.52
  G69                  CONDUIT    689.99     0  00:29      4.99    0.49    0.49
  G70                  CONDUIT     56.48     0  00:29      1.08    0.16    0.50
  G71                  CONDUIT    782.87     0  00:29      5.39    0.48    0.51
  G72                  CONDUIT     73.28     0  00:29      1.18    0.21    0.55
  G73                  CONDUIT    908.25     0  00:29      5.26    0.56    0.59
  G74                  CONDUIT    938.90     0  00:29      4.14    0.67    0.75
  G75                  CONDUIT    939.46     0  00:29      2.72    0.71    0.65
  G76                  CONDUIT    941.99     0  00:29      2.52    0.71    0.72
  G78                  CONDUIT    975.82     0  00:29      2.32    0.74    0.82
  G77                  CONDUIT     88.72     0  00:27      0.73    0.09    0.89
  G60                  CONDUIT      1.49     0  00:24      0.13    0.02    0.54
  G62                  CONDUIT      1.76     0  00:25      0.13    0.02    0.74
  G79                  CONDUIT     61.88     0  00:28      1.44    0.56    0.38
  G80                  CONDUIT    111.01     0  00:28      2.90    0.20    0.34
  G81                  CONDUIT     44.66     0  00:29      1.01    0.40    0.40
  G82                  CONDUIT    210.60     0  00:29      3.31    0.31    0.50
  G83                  CONDUIT    252.31     0  00:29      3.79    0.72    0.52
  G84                  CONDUIT    298.34     0  00:29      3.13    0.37    0.71
  G85                  CONDUIT      0.38     0  00:24      0.07    0.00    0.13
  G86                  CONDUIT     31.72     0  00:29      1.60    0.05    0.22
  G87                  CONDUIT     96.07     0  00:29      2.01    0.16    0.41
  G88                  CONDUIT    127.80     0  00:29      1.86    0.56    0.54
  G89                  CONDUIT    128.23     0  00:28      1.66    0.21    0.43
  G90                  CONDUIT     56.07     0  00:29      2.08    0.16    0.27
  G91                  CONDUIT     55.97     0  00:29      1.22    0.15    0.39
  G92                  CONDUIT     59.28     0  00:29      1.26    0.17    0.41
  G94                  CONDUIT     39.10     0  00:29      0.88    0.11    0.40
  G93                  CONDUIT    114.85     0  00:29      1.64    0.54    0.55
  G95                  CONDUIT    153.46     0  00:29      2.09    0.62    0.57
  G96                  CONDUIT     52.56     0  00:29      1.18    0.15    0.41
  G152                 CONDUIT   1377.54     0  00:29      3.00    1.04    0.88
  G153                 CONDUIT    205.52     0  00:29      2.80    0.61    0.57
  
  
  ***************************
  Flow Classification Summary
  ***************************
  
  -------------------------------------------------------------------------------------
                      Adjusted    ---------- Fraction of Time in Flow Class ---------- 
                       /Actual         Up    Down  Sub   Sup   Up    Down  Norm  Inlet 
  Conduit               Length    Dry  Dry   Dry   Crit  Crit  Crit  Crit  Ltd   Ctrl  
  -------------------------------------------------------------------------------------
  G1                      1.00   0.05  0.00  0.00  0.42  0.53  0.00  0.00  0.76  0.00
  G2                      1.00   0.05  0.00  0.00  0.89  0.05  0.00  0.00  0.75  0.00
  G3                      1.00   0.05  0.00  0.00  0.91  0.03  0.00  0.00  0.77  0.00
  G4                      1.00   0.05  0.00  0.00  0.39  0.55  0.00  0.00  0.72  0.00
  G5                      1.00   0.05  0.00  0.00  0.92  0.03  0.00  0.00  0.75  0.00
  G6                      1.00   0.05  0.00  0.00  0.22  0.72  0.00  0.00  0.43  0.00
  G7                      1.00   0.05  0.00  0.00  0.28  0.66  0.00  0.00  0.55  0.00
  G8                      1.00   0.05  0.00  0.00  0.91  0.04  0.00  0.00  0.67  0.00
  G38                     1.00   0.05  0.00  0.00  0.38  0.57  0.00  0.00  0.86  0.00
  G39                     1.00   0.05  0.00  0.00  0.92  0.03  0.00  0.00  0.83  0.00
  G40                     1.00   0.05  0.00  0.00  0.91  0.03  0.00  0.00  0.82  0.00
  G41                     1.00   0.05  0.00  0.00  0.90  0.04  0.00  0.00  0.00  0.00
  G42                     1.00   0.05  0.00  0.00  0.91  0.03  0.00  0.00  0.79  0.00
  G43                     1.00   0.05  0.00  0.00  0.15  0.80  0.00  0.00  0.64  0.00
  G44                     1.00   0.05  0.00  0.00  0.90  0.04  0.00  0.00  0.78  0.00
  G45                     1.00   0.05  0.00  0.00  0.13  0.82  0.00  0.00  0.47  0.00
  G46                     1.00   0.05  0.00  0.00  0.90  0.04  0.00  0.00  0.79  0.00
  G47                     1.00   0.05  0.00  0.00  0.12  0.82  0.00  0.00  0.69  0.00
  G48                     1.00   0.05  0.00  0.00  0.92  0.02  0.00  0.00  0.77  0.00
  G49                     1.00   0.05  0.00  0.00  0.00  0.94  0.00  0.00  0.02  0.00
  G50                     1.00   0.05  0.00  0.00  0.90  0.04  0.00  0.00  0.83  0.00
  G51                     1.00   0.05  0.00  0.00  0.00  0.94  0.00  0.00  0.79  0.00
  G52                     1.00   0.05  0.00  0.00  0.86  0.09  0.00  0.00  0.84  0.00
  G53                     1.00   0.05  0.00  0.00  0.00  0.95  0.00  0.00  0.93  0.00
  G54                     1.00   0.05  0.00  0.00  0.00  0.94  0.00  0.00  0.22  0.00
  G56                     1.00   0.06  0.00  0.00  0.00  0.13  0.00  0.81  0.12  0.00
  G16                     1.00   0.05  0.00  0.00  0.33  0.62  0.00  0.00  0.79  0.00
  G17                     1.00   0.05  0.00  0.00  0.51  0.43  0.00  0.00  0.84  0.00
  G18                     1.00   0.05  0.00  0.00  0.91  0.03  0.00  0.00  0.87  0.00
  G19                     1.00   0.05  0.00  0.00  0.34  0.60  0.00  0.00  0.50  0.00
  G20                     1.00   0.05  0.00  0.00  0.09  0.85  0.00  0.00  0.25  0.00
  G21                     1.00   0.05  0.00  0.00  0.93  0.01  0.00  0.00  0.83  0.00
  G22                     1.00   0.05  0.00  0.00  0.92  0.03  0.00  0.00  0.86  0.00
  G23                     1.00   0.05  0.00  0.00  0.00  0.00  0.00  0.95  0.00  0.00
  G24                     1.00   0.05  0.00  0.00  0.91  0.03  0.00  0.00  0.80  0.00
  G25                     1.00   0.05  0.00  0.00  0.01  0.94  0.00  0.00  0.64  0.00
  G26                     1.00   0.05  0.00  0.00  0.93  0.02  0.00  0.00  0.21  0.00
  G27                     1.00   0.05  0.00  0.00  0.02  0.93  0.00  0.00  0.39  0.00
  G28                     1.00   0.05  0.00  0.00  0.91  0.04  0.00  0.00  0.85  0.00
  G9                      1.00   0.05  0.00  0.00  0.00  0.00  0.00  0.95  0.00  0.00
  G10                     1.00   0.05  0.00  0.00  0.92  0.03  0.00  0.00  0.73  0.00
  G11                     1.00   0.05  0.00  0.00  0.03  0.91  0.00  0.00  0.56  0.00
  G12                     1.00   0.05  0.00  0.00  0.92  0.03  0.00  0.00  0.67  0.00
  G13                     1.00   0.05  0.00  0.00  0.34  0.60  0.00  0.00  0.24  0.00
  G14                     1.00   0.06  0.00  0.00  0.02  0.92  0.00  0.00  0.00  0.00
  G29                     1.00   0.05  0.00  0.00  0.00  0.00  0.00  0.95  0.00  0.00
  G15                     1.00   0.06  0.01  0.00  0.03  0.91  0.00  0.00  0.94  0.00
  G30                     1.00   0.05  0.06  0.00  0.00  0.00  0.88  0.00  0.00  0.00
  G31                     1.00   0.06  0.00  0.00  0.02  0.92  0.00  0.00  0.02  0.00
  G33                     1.00   0.06  0.00  0.00  0.00  0.94  0.00  0.00  0.00  0.00
  G34                     1.00   0.05  0.00  0.00  0.89  0.05  0.00  0.00  0.79  0.00
  G35                     1.00   0.06  0.00  0.00  0.00  0.94  0.00  0.00  0.88  0.00
  G36                     1.00   0.05  0.00  0.00  0.88  0.07  0.00  0.00  0.86  0.00
  G37                     1.00   0.06  0.00  0.00  0.00  0.10  0.00  0.85  0.08  0.00
  G32                     1.00   0.05  0.00  0.00  0.89  0.05  0.00  0.00  0.77  0.00
  G57                     1.00   0.06  0.00  0.00  0.00  0.94  0.00  0.00  0.53  0.00
  G58                     1.00   0.05  0.00  0.00  0.19  0.75  0.00  0.00  0.93  0.00
  G59                     1.00   0.05  0.00  0.00  0.00  0.00  0.00  0.95  0.00  0.00
  G61                     1.00   0.05  0.00  0.00  0.25  0.69  0.00  0.00  0.83  0.00
  G63                     1.00   0.05  0.00  0.00  0.07  0.87  0.00  0.00  0.55  0.00
  G64                     1.00   0.05  0.00  0.00  0.72  0.23  0.00  0.00  0.88  0.00
  G66                     1.00   0.05  0.00  0.00  0.43  0.52  0.00  0.00  0.04  0.00
  G65                     1.00   0.05  0.00  0.00  0.01  0.94  0.00  0.00  0.53  0.00
  G67                     1.00   0.05  0.00  0.00  0.01  0.93  0.00  0.00  0.02  0.00
  G68                     1.00   0.05  0.00  0.00  0.83  0.12  0.00  0.00  0.89  0.00
  G69                     1.00   0.05  0.00  0.00  0.00  0.94  0.00  0.00  0.10  0.00
  G70                     1.00   0.05  0.00  0.00  0.86  0.08  0.00  0.00  0.90  0.00
  G71                     1.00   0.05  0.00  0.00  0.00  0.94  0.00  0.00  0.93  0.00
  G72                     1.00   0.05  0.00  0.00  0.85  0.10  0.00  0.00  0.90  0.00
  G73                     1.00   0.05  0.00  0.00  0.00  0.94  0.00  0.00  0.90  0.00
  G74                     1.00   0.05  0.00  0.00  0.00  0.94  0.00  0.00  0.75  0.00
  G75                     1.00   0.06  0.00  0.00  0.01  0.94  0.00  0.00  0.57  0.00
  G76                     1.00   0.06  0.00  0.00  0.01  0.93  0.00  0.00  0.54  0.00
  G78                     1.00   0.06  0.00  0.00  0.13  0.81  0.00  0.00  0.30  0.00
  G77                     1.00   0.05  0.00  0.00  0.91  0.03  0.00  0.00  0.58  0.00
  G60                     1.00   0.05  0.02  0.00  0.93  0.00  0.00  0.00  0.09  0.00
  G62                     1.00   0.05  0.02  0.00  0.92  0.00  0.00  0.00  0.10  0.00
  G79                     1.00   0.05  0.00  0.00  0.20  0.74  0.00  0.00  0.02  0.00
  G80                     1.00   0.05  0.00  0.00  0.00  0.94  0.00  0.00  0.95  0.00
  G81                     1.00   0.05  0.00  0.00  0.92  0.02  0.00  0.00  0.26  0.00
  G82                     1.00   0.05  0.00  0.00  0.00  0.95  0.00  0.00  0.94  0.00
  G83                     1.00   0.05  0.00  0.00  0.00  0.94  0.00  0.00  0.14  0.00
  G84                     1.00   0.05  0.00  0.00  0.52  0.42  0.00  0.00  0.93  0.00
  G85                     1.00   0.05  0.10  0.00  0.85  0.00  0.00  0.00  0.34  0.00
  G86                     1.00   0.05  0.00  0.00  0.01  0.94  0.00  0.00  0.94  0.00
  G87                     1.00   0.05  0.00  0.00  0.00  0.94  0.00  0.00  0.94  0.00
  G88                     1.00   0.05  0.00  0.00  0.00  0.00  0.00  0.95  0.00  0.00
  G89                     1.00   0.06  0.00  0.00  0.04  0.05  0.00  0.86  0.05  0.00
  G90                     1.00   0.05  0.00  0.00  0.00  0.94  0.00  0.00  0.35  0.00
  G91                     1.00   0.06  0.00  0.00  0.23  0.71  0.00  0.00  0.93  0.00
  G92                     1.00   0.05  0.00  0.00  0.26  0.68  0.00  0.00  0.84  0.00
  G94                     1.00   0.05  0.00  0.00  0.91  0.04  0.00  0.00  0.92  0.00
  G93                     1.00   0.06  0.00  0.00  0.11  0.83  0.00  0.00  0.75  0.00
  G95                     1.00   0.06  0.00  0.00  0.02  0.92  0.00  0.00  0.51  0.00
  G96                     1.00   0.05  0.00  0.00  0.66  0.28  0.00  0.00  0.85  0.00
  G152                    1.00   0.06  0.00  0.00  0.00  0.94  0.00  0.00  0.46  0.00
  G153                    1.00   0.06  0.00  0.00  0.00  0.94  0.00  0.00  0.50  0.00
  
  
  *************************
  Conduit Surcharge Summary
  *************************
  
  ----------------------------------------------------------------------------
                                                           Hours        Hours 
                         --------- Hours Full --------   Above Full   Capacity
  Conduit                Both Ends  Upstream  Dnstream   Normal Flow   Limited
  ----------------------------------------------------------------------------
  G1                          0.15      0.15      0.16      0.01         0.01
  G2                          0.16      0.16      0.18      0.01         0.01
  G3                          0.17      0.17      0.18      0.01         0.01
  G4                          0.18      0.18      0.20      0.01         0.01
  G5                          0.19      0.19      0.20      0.01         0.01
  G6                          0.20      0.20      0.21      0.16         0.17
  G7                          0.21      0.21      0.23      0.20         0.20
  G8                          0.19      0.19      0.23      0.01         0.01
  G38                         0.01      0.01      0.05      0.01         0.01
  G39                         0.05      0.05      0.15      0.01         0.01
  G40                         0.13      0.13      0.15      0.01         0.01
  G41                         0.14      0.15      0.14      0.17         0.14
  G42                         0.14      0.14      0.14      0.01         0.01
  G43                         0.14      0.14      0.14      0.02         0.02
  G44                         0.14      0.14      0.14      0.01         0.01
  G45                         0.14      0.14      0.14      0.15         0.14
  G46                         0.14      0.14      0.14      0.01         0.01
  G47                         0.14      0.14      0.16      0.14         0.14
  G48                         0.14      0.14      0.16      0.01         0.01
  G49                         0.01      0.16      0.01      0.16         0.01
  G16                         0.03      0.03      0.04      0.01         0.01
  G17                         0.04      0.04      0.08      0.01         0.01
  G18                         0.03      0.03      0.08      0.01         0.01
  G19                         0.08      0.08      0.11      0.05         0.05
  G20                         0.03      0.03      0.06      0.01         0.01
  G21                         0.06      0.06      0.11      0.01         0.01
  G22                         0.03      0.03      0.11      0.01         0.01
  G23                         0.01      0.11      0.01      0.15         0.01
  G26                         0.01      0.01      0.01      0.01         0.01
  G9                          0.13      0.23      0.13      0.24         0.13
  G10                         0.01      0.01      0.01      0.01         0.01
  G12                         0.01      0.01      0.16      0.01         0.01
  G14                         0.01      0.01      0.01      0.21         0.01
  G30                         0.01      0.01      1.09      0.01         0.01
  G64                         0.01      0.01      0.03      0.01         0.01
  G66                         0.03      0.14      0.03      0.28         0.03
  G77                         0.01      0.01      0.02      0.01         0.01
  G84                         0.01      0.01      0.19      0.01         0.01
  G152                        0.01      0.01      0.01      0.02         0.01
  

  Analysis begun on:  Thu Aug 21 12:32:34 2025
  Analysis ended on:  Thu Aug 21 12:32:38 2025
  Total elapsed time: 00:00:04